-------------------------------------------------------
          Amber 20 PMEMD                              2020
          -------------------------------------------------------

  [-O]verwriting output

File Assignments:

 Here is the input file:

NPT MD w/No position restraints and PME (sander)
 &cntrl
  ntx    = 5,
  irest  = 1,
  ntpr   = 100,
  ntwx   = 10000,
  ntwe   = 10000,
  ntwr   = 10000,
  ig     = -1,

  ntb    = 2,
  ntp = 1, pres0 = 1.0, taup = 2.0,gamma_ln = 2.0,
  cut    = 10.0,
  iwrap  = 1,
  barostat = 2,
  ntr = 1, restraint_wt = 10.00,
  restraintmask='!:WAT & !@H=',

  nstlim = 5000,
  t      = 0.0,
  dt     = 0.002,

  temp0  = 300.0,
  tempi  = 300.0,
  ntt    = 3,
  tautp  = 2.0,

  ntf    = 1,
  ntc    = 2,
  iwrap=1, ioutfm=1, ntwv=-1,ntave=1000,
  icfe = 1, ifsc = 1,
  timask1=':1,2',
  timask2=':3',
  scmask1=':2',
  scmask2='',
  ifmbar = 1,
  clambda = 0.0,
  mbar_states = 10,
  mbar_lambda = 0.0, 0.0, 0.2, 0.2, 0.5, 0.5, 0.6, 0.6, 1.0, 1.0,
&end
 /

Note: ig = -1. Setting random seed to   307039 based on wallclock time in
      microseconds.

--------------------------------------------------------------------------------
   1.  RESOURCE   USE:
--------------------------------------------------------------------------------

 getting box info from netcdf restart file
 NATOM  =    4548 NTYPES =      17 NBONH =    4492 MBONA  =      62
 NTHETH =     105 MTHETA =      88 NPHIH =     188 MPHIA  =     154
 NHPARM =       0 NPARM  =       0 NNB   =    6494 NRES   =    1485
 NBONA  =      62 NTHETA =      88 NPHIA =     154 NUMBND =      22
 NUMANG =      36 NPTRA  =      19 NATYP =      18 NPHB   =       1
 IFBOX  =       1 NMXRS  =      50 IFCAP =       0 NEXTRA =       0
 NCOPY  =       0

     BOX TYPE: RECTILINEAR

--------------------------------------------------------------------------------
   2.  CONTROL  DATA  FOR  THE  RUN
--------------------------------------------------------------------------------

default_name

General flags:
     imin    =       0, nmropt  =       0

Nature and format of input:
     ntx     =       5, irest   =       1, ntrx    =       1

Nature and format of output:
     ntxo    =       2, ntpr    =     100, ntrx    =       1, ntwr    =   10000
     iwrap   =       1, ntwx    =   10000, ntwv    =      -1, ntwe    =   10000
     ioutfm  =       1, ntwprt  =       0, idecomp =       0, rbornstat=      0

Potential function:
     ntf     =       1, ntb     =       2, igb     =       0, nsnb    =      25
     ipol    =       0, gbsa    =       0, iesp    =       0
     dielc   =   1.00000, cut     =  10.00000, intdiel =   1.00000

Frozen or restrained atoms:
     ibelly  =       0, ntr     =       1
     restraint_wt =  10.00000

Molecular dynamics:
     nstlim  =      5000, nscm    =         0, nrespa  =         1
     t       =   0.00000, dt      =   0.00200, vlimit  =  -1.00000

Langevin dynamics temperature regulation:
     ig      =  307039
     temp0   = 300.00000, tempi   = 300.00000, gamma_ln=   2.00000

Pressure regulation:
     ntp     =       1
     pres0   =   1.00000, comp    =  44.60000, taup    =   2.00000
     Monte-Carlo Barostat:
     mcbarint  =     100

SHAKE:
     ntc     =       2, jfastw  =       0
     tol     =   0.00001

Free energy options:
     icfe    =       1, ifsc    =       1, klambda =       1
     clambda =  0.0000, scalpha =  0.5000, scbeta  = 12.0000
     sceeorder =       2
     dynlmb =  0.0000 logdvdl =       0

FEP MBAR options:
     ifmbar  =       1,  bar_intervall =      100
     mbar_states =      10

Ewald parameters:
     verbose =       0, ew_type =       0, nbflag  =       1, use_pme =       1
     vdwmeth =       1, eedmeth =       1, netfrc  =       1
     Box X =   35.934   Box Y =   37.332   Box Z =   35.395
     Alpha =   90.000   Beta  =   90.000   Gamma =   90.000
     NFFT1 =   36       NFFT2 =   40       NFFT3 =   36
     Cutoff=   10.000   Tol   =0.100E-04
     Ewald Coefficient =  0.27511
     Interpolation order =    4

    LOADING THE CONSTRAINED ATOMS AS GROUPS

   5.  REFERENCE ATOM COORDINATES

  default_name
     Mask !:WAT & !@H=; matches    56 atoms
     TI Mask 1 :1,2; matches     52 atoms
     TI Mask 2 :3; matches     50 atoms
     TI region 1:    4498 atoms
     TI region 2:    4496 atoms
     SC Mask 1 :2; matches      2 atoms

    MBAR - lambda values considered:
      10 total:  0.0000 0.0000 0.2000 0.2000 0.5000 0.5000 0.6000 0.6000 1.0000 1.0000
    Extra energies will be computed     50 times.

--------------------------------------------------------------------------------
   3.  ATOMIC COORDINATES AND VELOCITIES
--------------------------------------------------------------------------------

default_name
 begin time read from input coords =   130.000 ps

     Molecule     1 is partially softcore
     Molecule     2 is partially softcore
 Number of triangulated 3-point waters found:     1482
   Removing shake constraints from HX1   LBM   2 -- N26   LAM   1
   Removing shake constraints from H23   LBM   2 -- N26   LAM   1
 Number of shake restraints removed in TI region  1 :        2
 Number of shake restraints removed in TI region  2 :        0

     Sum of charges for TI region  1 =  -0.00249680
     Skip neutralizing charges...

     Sum of charges for TI region  2 =  -0.00299999
     Skip neutralizing charges...

--------------------------------------------------------------------------------
   4.  RESULTS
 NSTEP =      100   TIME(PS) =     130.200  TEMP(K) =   302.34  PRESS =     0.0
 Etot   =    -11521.8459  EKtot   =      2711.4765  EPtot      =    -14233.3224
 BOND   =         7.0788  ANGLE   =        22.7046  DIHED      =        37.5966
 1-4 NB =        17.2817  1-4 EEL =      -387.6034  VDWAALS    =      2014.9888
 EELEC  =    -15953.5954  EHBOND  =         0.0000  RESTRAINT  =         8.2259
 EAMBER (non-restraint)  =    -14241.5484
 EKCMT  =         0.0000  VIRIAL  =         0.0000  VOLUME     =     47481.4302
                                                    Density    =         0.9479
 DV/DL  =      -140.8077
 ------------------------------------------------------------------------------

      A V E R A G E S   O V E R    1000 S T E P S

 NSTEP =     1000   TIME(PS) =     132.000  TEMP(K) =   302.40  PRESS =     0.0
 Etot   =    -11500.6965  EKtot   =      2711.9442  EPtot      =    -14212.6408
 BOND   =        11.5807  ANGLE   =        28.6592  DIHED      =        39.4433
 1-4 NB =        16.1270  1-4 EEL =      -385.5731  VDWAALS    =      2014.5840
 EELEC  =    -15946.3784  EHBOND  =         0.0000  RESTRAINT  =         8.9166
 EAMBER (non-restraint)  =    -14221.5573
 EKCMT  =         0.0000  VIRIAL  =         0.0000  VOLUME     =     47039.1521
                                                    Density    =         0.9569
 DV/DL  =      -147.3512
 ------------------------------------------------------------------------------

      R M S  F L U C T U A T I O N S

 NSTEP =     1000   TIME(PS) =     132.000  TEMP(K) =     3.84  PRESS =     0.0
 Etot   =        37.3364  EKtot   =        34.4594  EPtot      =        29.3593
 BOND   =         2.7881  ANGLE   =         3.6789  DIHED      =         2.1385
 1-4 NB =         1.0023  1-4 EEL =         3.3870  VDWAALS    =        65.2279
 EELEC  =        67.6893  EHBOND  =         0.0000  RESTRAINT  =         2.3533
 EAMBER (non-restraint)  =        27.0060
 EKCMT  =         0.0000  VIRIAL  =         0.0000  VOLUME     =       386.9983
                                                    Density    =         0.0079
 DV/DL  =         7.3870
 ------------------------------------------------------------------------------

      A V E R A G E S   O V E R    1000 S T E P S

 NSTEP =     1000   TIME(PS) =     132.000  TEMP(K) =   302.39  PRESS =     0.0
 Etot   =    -11502.5580  EKtot   =      2710.0828  EPtot      =    -14212.6408
 BOND   =        11.5807  ANGLE   =        28.6592  DIHED      =        39.4433
 1-4 NB =        16.1270  1-4 EEL =      -385.5731  VDWAALS    =      2014.5840
 EELEC  =    -15946.3784  EHBOND  =         0.0000  RESTRAINT  =         8.9166
 EAMBER (non-restraint)  =    -14221.5573
 EKCMT  =         0.0000  VIRIAL  =         0.0000  VOLUME     =     47039.1521
                                                    Density    =         0.9568
 DV/DL  =      -147.3512
 ------------------------------------------------------------------------------

      R M S  F L U C T U A T I O N S

 NSTEP =     1000   TIME(PS) =     132.000  TEMP(K) =     3.84  PRESS =     0.0
 Etot   =        37.4119  EKtot   =        34.4342  EPtot      =        29.3593
 BOND   =         2.7881  ANGLE   =         3.6789  DIHED      =         2.1385
 1-4 NB =         1.0023  1-4 EEL =         3.3870  VDWAALS    =        65.2279
 EELEC  =        67.6893  EHBOND  =         0.0000  RESTRAINT  =         2.3533
 EAMBER (non-restraint)  =        27.0060
 EKCMT  =         0.0000  VIRIAL  =         0.0000  VOLUME     =       386.9983
                                                    Density    =         0.0079
 DV/DL  =         7.3870
 ------------------------------------------------------------------------------

      DV/DL, AVERAGES OVER    1000 STEPS

 NSTEP =     1000   TIME(PS) =     132.000  TEMP(K) =     3.84  PRESS =     0.0
 Etot   =         0.0000  EKtot   =         0.0000  EPtot      =      -145.8888
 BOND   =         0.0000  ANGLE   =         0.0000  DIHED      =         0.0000
 1-4 NB =        -0.0498  1-4 EEL =      -195.2983  VDWAALS    =        -0.5141
 EELEC  =        50.5031  EHBOND  =         0.0000  RESTRAINT  =         0.0000
 EKCMT  =         0.0000  VIRIAL  =         0.0000  VOLUME     =         0.0000
                                                    Density    =         0.0000
 DV/DL  =      -145.8888
 ------------------------------------------------------------------------------

      A V E R A G E S   O V E R    1000 S T E P S

 NSTEP =     2000   TIME(PS) =     134.000  TEMP(K) =   301.22  PRESS =     0.0
 Etot   =    -11540.7149  EKtot   =      2701.3971  EPtot      =    -14242.1120
 BOND   =        11.1501  ANGLE   =        28.5053  DIHED      =        40.9586
 1-4 NB =        16.0286  1-4 EEL =      -385.7618  VDWAALS    =      2036.4384
 EELEC  =    -15998.0326  EHBOND  =         0.0000  RESTRAINT  =         8.6013
 EAMBER (non-restraint)  =    -14250.7133
 EKCMT  =         0.0000  VIRIAL  =         0.0000  VOLUME     =     46487.6918
                                                    Density    =         0.9682
 DV/DL  =      -147.8085
 ------------------------------------------------------------------------------

      R M S  F L U C T U A T I O N S

 NSTEP =     2000   TIME(PS) =     134.000  TEMP(K) =     3.99  PRESS =     0.0
 Etot   =        30.8443  EKtot   =        35.7546  EPtot      =        36.3312
 BOND   =         2.4492  ANGLE   =         3.0733  DIHED      =         1.9310
 1-4 NB =         1.1202  1-4 EEL =         3.5828  VDWAALS    =        49.4917
 EELEC  =        62.6432  EHBOND  =         0.0000  RESTRAINT  =         2.0919
 EAMBER (non-restraint)  =        34.2393
 EKCMT  =         0.0000  VIRIAL  =         0.0000  VOLUME     =       115.5047
                                                    Density    =         0.0024
 DV/DL  =         6.4296
 ------------------------------------------------------------------------------

      A V E R A G E S   O V E R    1000 S T E P S

 NSTEP =     2000   TIME(PS) =     134.000  TEMP(K) =   301.23  PRESS =     0.0
 Etot   =    -11542.3954  EKtot   =      2699.7166  EPtot      =    -14242.1120
 BOND   =        11.1501  ANGLE   =        28.5053  DIHED      =        40.9586
 1-4 NB =        16.0286  1-4 EEL =      -385.7618  VDWAALS    =      2036.4384
 EELEC  =    -15998.0326  EHBOND  =         0.0000  RESTRAINT  =         8.6013
 EAMBER (non-restraint)  =    -14250.7133
 EKCMT  =         0.0000  VIRIAL  =         0.0000  VOLUME     =     46487.6918
                                                    Density    =         0.9681
 DV/DL  =      -147.8085
 ------------------------------------------------------------------------------

      R M S  F L U C T U A T I O N S

 NSTEP =     2000   TIME(PS) =     134.000  TEMP(K) =     3.99  PRESS =     0.0
 Etot   =        30.9894  EKtot   =        35.7625  EPtot      =        36.3312
 BOND   =         2.4492  ANGLE   =         3.0733  DIHED      =         1.9310
 1-4 NB =         1.1202  1-4 EEL =         3.5828  VDWAALS    =        49.4917
 EELEC  =        62.6432  EHBOND  =         0.0000  RESTRAINT  =         2.0919
 EAMBER (non-restraint)  =        34.2393
 EKCMT  =         0.0000  VIRIAL  =         0.0000  VOLUME     =       115.5047
                                                    Density    =         0.0024
 DV/DL  =         6.4296
 ------------------------------------------------------------------------------

      DV/DL, AVERAGES OVER    1000 STEPS

 NSTEP =     2000   TIME(PS) =     134.000  TEMP(K) =     3.99  PRESS =     0.0
 Etot   =         0.0000  EKtot   =         0.0000  EPtot      =      -146.3360
 BOND   =         0.0000  ANGLE   =         0.0000  DIHED      =         0.0000
 1-4 NB =        -0.0223  1-4 EEL =      -195.1952  VDWAALS    =        -0.6320
 EELEC  =        50.0557  EHBOND  =         0.0000  RESTRAINT  =         0.0000
 EKCMT  =         0.0000  VIRIAL  =         0.0000  VOLUME     =         0.0000
                                                    Density    =         0.0000
 DV/DL  =      -146.3360
 ------------------------------------------------------------------------------

      A V E R A G E S   O V E R    1000 S T E P S

 NSTEP =     5000   TIME(PS) =     140.000  TEMP(K) =   300.44  PRESS =     0.0
 Etot   =    -11633.8488  EKtot   =      2694.4268  EPtot      =    -14328.2757
 BOND   =        11.3379  ANGLE   =        28.2153  DIHED      =        40.3014
 1-4 NB =        15.9775  1-4 EEL =      -386.8333  VDWAALS    =      2086.5532
 EELEC  =    -16133.5160  EHBOND  =         0.0000  RESTRAINT  =         9.6883
 EAMBER (non-restraint)  =    -14337.9639
 EKCMT  =         0.0000  VIRIAL  =         0.0000  VOLUME     =     45784.4694
                                                    Density    =         0.9831
 DV/DL  =      -149.4408
 ------------------------------------------------------------------------------

      R M S  F L U C T U A T I O N S

 NSTEP =     5000   TIME(PS) =     140.000  TEMP(K) =     3.92  PRESS =     0.0
 Etot   =        45.6630  EKtot   =        35.1320  EPtot      =        47.1553
 BOND   =         2.6211  ANGLE   =         3.3641  DIHED      =         2.0290
 1-4 NB =         1.0570  1-4 EEL =         3.2800  VDWAALS    =        57.5147
 EELEC  =        83.6723  EHBOND  =         0.0000  RESTRAINT  =         2.2225
 EAMBER (non-restraint)  =        44.9328
 EKCMT  =         0.0000  VIRIAL  =         0.0000  VOLUME     =       282.5968
                                                    Density    =         0.0061
 DV/DL  =         5.7521
 ------------------------------------------------------------------------------

      A V E R A G E S   O V E R    1000 S T E P S

 NSTEP =     5000   TIME(PS) =     140.000  TEMP(K) =   300.33  PRESS =     0.0
 Etot   =    -11636.6825  EKtot   =      2691.5932  EPtot      =    -14328.2757
 BOND   =        11.3379  ANGLE   =        28.2153  DIHED      =        40.3014
 1-4 NB =        15.9775  1-4 EEL =      -386.8333  VDWAALS    =      2086.5532
 EELEC  =    -16133.5160  EHBOND  =         0.0000  RESTRAINT  =         9.6883
 EAMBER (non-restraint)  =    -14337.9639
 EKCMT  =         0.0000  VIRIAL  =         0.0000  VOLUME     =     45784.4694
                                                    Density    =         0.9830
 DV/DL  =      -149.4408
 ------------------------------------------------------------------------------

      R M S  F L U C T U A T I O N S

 NSTEP =     5000   TIME(PS) =     140.000  TEMP(K) =     3.91  PRESS =     0.0
 Etot   =        45.6253  EKtot   =        35.0657  EPtot      =        47.1553
 BOND   =         2.6211  ANGLE   =         3.3641  DIHED      =         2.0290
 1-4 NB =         1.0570  1-4 EEL =         3.2800  VDWAALS    =        57.5147
 EELEC  =        83.6723  EHBOND  =         0.0000  RESTRAINT  =         2.2225
 EAMBER (non-restraint)  =        44.9328
 EKCMT  =         0.0000  VIRIAL  =         0.0000  VOLUME     =       282.5968
                                                    Density    =         0.0061
 DV/DL  =         5.7521
 ------------------------------------------------------------------------------

      DV/DL, AVERAGES OVER    1000 STEPS

 NSTEP =     5000   TIME(PS) =     140.000  TEMP(K) =     3.91  PRESS =     0.0
 Etot   =         0.0000  EKtot   =         0.0000  EPtot      =      -147.9307
 BOND   =         0.0000  ANGLE   =         0.0000  DIHED      =         0.0000
 1-4 NB =         0.0764  1-4 EEL =      -194.7404  VDWAALS    =        -0.3560
 EELEC  =        46.5157  EHBOND  =         0.0000  RESTRAINT  =         0.0000
 EKCMT  =         0.0000  VIRIAL  =         0.0000  VOLUME     =         0.0000
                                                    Density    =         0.0000
 DV/DL  =      -147.9307
 ------------------------------------------------------------------------------

      A V E R A G E S   O V E R    5000 S T E P S

 NSTEP =     5000   TIME(PS) =     140.000  TEMP(K) =   300.27  PRESS =     0.0
 Etot   =    -11591.7057  EKtot   =      2692.8775  EPtot      =    -14284.5831
 BOND   =        10.9848  ANGLE   =        28.0954  DIHED      =        40.5764
 1-4 NB =        16.0081  1-4 EEL =      -386.3446  VDWAALS    =      2053.1593
 EELEC  =    -16055.6441  EHBOND  =         0.0000  RESTRAINT  =         8.5814
 EAMBER (non-restraint)  =    -14293.1646
 EKCMT  =         0.0000  VIRIAL  =         0.0000  VOLUME     =     46300.0253
                                                    Density    =         0.9722
 DV/DL  =      -148.9640
 ------------------------------------------------------------------------------

      R M S  F L U C T U A T I O N S

 NSTEP =     5000   TIME(PS) =     140.000  TEMP(K) =     4.20  PRESS =     0.0
 Etot   =        72.6623  EKtot   =        37.6832  EPtot      =        63.0627
 BOND   =         2.6026  ANGLE   =         3.3901  DIHED      =         2.1636
 1-4 NB =         1.0722  1-4 EEL =         3.4358  VDWAALS    =        63.9474
 EELEC  =       105.8731  EHBOND  =         0.0000  RESTRAINT  =         2.1423
 EAMBER (non-restraint)  =        60.9204
 EKCMT  =         0.0000  VIRIAL  =         0.0000  VOLUME     =       504.8918
                                                    Density    =         0.0105
 DV/DL  =         6.3610
 ------------------------------------------------------------------------------

      A V E R A G E S   O V E R    5000 S T E P S

 NSTEP =     5000   TIME(PS) =     140.000  TEMP(K) =   300.25  PRESS =     0.0
 Etot   =    -11593.6830  EKtot   =      2690.9001  EPtot      =    -14284.5831
 BOND   =        10.9848  ANGLE   =        28.0954  DIHED      =        40.5764
 1-4 NB =        16.0081  1-4 EEL =      -386.3446  VDWAALS    =      2053.1593
 EELEC  =    -16055.6441  EHBOND  =         0.0000  RESTRAINT  =         8.5814
 EAMBER (non-restraint)  =    -14293.1646
 EKCMT  =         0.0000  VIRIAL  =         0.0000  VOLUME     =     46300.0253
                                                    Density    =         0.9721
 DV/DL  =      -148.9640
 ------------------------------------------------------------------------------

      R M S  F L U C T U A T I O N S

 NSTEP =     5000   TIME(PS) =     140.000  TEMP(K) =     4.20  PRESS =     0.0
 Etot   =        72.8162  EKtot   =        37.6536  EPtot      =        63.0627
 BOND   =         2.6026  ANGLE   =         3.3901  DIHED      =         2.1636
 1-4 NB =         1.0722  1-4 EEL =         3.4358  VDWAALS    =        63.9474
 EELEC  =       105.8731  EHBOND  =         0.0000  RESTRAINT  =         2.1423
 EAMBER (non-restraint)  =        60.9204
 EKCMT  =         0.0000  VIRIAL  =         0.0000  VOLUME     =       504.8918
                                                    Density    =         0.0105
 DV/DL  =         6.3610
 ------------------------------------------------------------------------------

      DV/DL, AVERAGES OVER    5000 STEPS

 NSTEP =     5000   TIME(PS) =     140.000  TEMP(K) =     4.20  PRESS =     0.0
 Etot   =         0.0000  EKtot   =         0.0000  EPtot      =      -147.4740
 BOND   =         0.0000  ANGLE   =         0.0000  DIHED      =         0.0000
 1-4 NB =         0.0296  1-4 EEL =      -194.9939  VDWAALS    =        -0.4744
 EELEC  =        48.0101  EHBOND  =         0.0000  RESTRAINT  =         0.0000
 EKCMT  =         0.0000  VIRIAL  =         0.0000  VOLUME     =         0.0000
                                                    Density    =         0.0000
 DV/DL  =      -147.4740
 ------------------------------------------------------------------------------
