-------------------------------------------------------
          Amber 20 PMEMD                              2020
          -------------------------------------------------------

  [-O]verwriting output

File Assignments:

 Here is the input file:

NPT MD w/No position restraints and PME (sander)
 &cntrl
  ntx    = 5,
  irest  = 1,
  ntpr   = 100,
  ntwx   = 10000,
  ntwe   = 10000,
  ntwr   = 10000,
  ig     = -1,

  ntb    = 2,
  ntp = 1, pres0 = 1.0, taup = 2.0,gamma_ln = 2.0,
  cut    = 10.0,
  iwrap  = 1,
  barostat = 2,
  ntr = 1, restraint_wt = 10.00,
  restraintmask='!:WAT & !@H=',

  nstlim = 80000,
  t      = 0.0,
  dt     = 0.002,

  temp0  = 300.0,
  tempi  = 300.0,
  ntt    = 3,
  tautp  = 2.0,

  ntf    = 1,
  ntc    = 2,
  iwrap=1, ioutfm=1, ntwv=-1,ntave=1000,
  icfe = 1, ifsc = 1,
  timask1=':1,2',
  timask2=':3',
  scmask1=':2',
  scmask2='',
  ifmbar = 1,
  clambda = 0.0,
  mbar_states = 10,
  mbar_lambda = 0.0, 0.0, 0.2, 0.2, 0.5, 0.5, 0.6, 0.6, 1.0, 1.0,
&end
 /

Note: ig = -1. Setting random seed to   828420 based on wallclock time in
      microseconds.

--------------------------------------------------------------------------------
   1.  RESOURCE   USE:
--------------------------------------------------------------------------------

 getting box info from netcdf restart file
 NATOM  =    4548 NTYPES =      17 NBONH =    4492 MBONA  =      62
 NTHETH =     105 MTHETA =      88 NPHIH =     188 MPHIA  =     154
 NHPARM =       0 NPARM  =       0 NNB   =    6494 NRES   =    1485
 NBONA  =      62 NTHETA =      88 NPHIA =     154 NUMBND =      22
 NUMANG =      36 NPTRA  =      19 NATYP =      18 NPHB   =       1
 IFBOX  =       1 NMXRS  =      50 IFCAP =       0 NEXTRA =       0
 NCOPY  =       0

     BOX TYPE: RECTILINEAR

--------------------------------------------------------------------------------
   2.  CONTROL  DATA  FOR  THE  RUN
--------------------------------------------------------------------------------

default_name

General flags:
     imin    =       0, nmropt  =       0

Nature and format of input:
     ntx     =       5, irest   =       1, ntrx    =       1

Nature and format of output:
     ntxo    =       2, ntpr    =     100, ntrx    =       1, ntwr    =   10000
     iwrap   =       1, ntwx    =   10000, ntwv    =      -1, ntwe    =   10000
     ioutfm  =       1, ntwprt  =       0, idecomp =       0, rbornstat=      0

Potential function:
     ntf     =       1, ntb     =       2, igb     =       0, nsnb    =      25
     ipol    =       0, gbsa    =       0, iesp    =       0
     dielc   =   1.00000, cut     =  10.00000, intdiel =   1.00000

Frozen or restrained atoms:
     ibelly  =       0, ntr     =       1
     restraint_wt =  10.00000

Molecular dynamics:
     nstlim  =     80000, nscm    =         0, nrespa  =         1
     t       =   0.00000, dt      =   0.00200, vlimit  =  -1.00000

Langevin dynamics temperature regulation:
     ig      =  828420
     temp0   = 300.00000, tempi   = 300.00000, gamma_ln=   2.00000

Pressure regulation:
     ntp     =       1
     pres0   =   1.00000, comp    =  44.60000, taup    =   2.00000
     Monte-Carlo Barostat:
     mcbarint  =     100

SHAKE:
     ntc     =       2, jfastw  =       0
     tol     =   0.00001

Free energy options:
     icfe    =       1, ifsc    =       1, klambda =       1
     clambda =  0.0000, scalpha =  0.5000, scbeta  = 12.0000
     sceeorder =       2
     dynlmb =  0.0000 logdvdl =       0

FEP MBAR options:
     ifmbar  =       1,  bar_intervall =      100
     mbar_states =      10

Ewald parameters:
     verbose =       0, ew_type =       0, nbflag  =       1, use_pme =       1
     vdwmeth =       1, eedmeth =       1, netfrc  =       1
     Box X =   35.393   Box Y =   36.770   Box Z =   34.862
     Alpha =   90.000   Beta  =   90.000   Gamma =   90.000
     NFFT1 =   36       NFFT2 =   40       NFFT3 =   36
     Cutoff=   10.000   Tol   =0.100E-04
     Ewald Coefficient =  0.27511
     Interpolation order =    4

    LOADING THE CONSTRAINED ATOMS AS GROUPS

   5.  REFERENCE ATOM COORDINATES

  default_name
     Mask !:WAT & !@H=; matches    56 atoms
     TI Mask 1 :1,2; matches     52 atoms
     TI Mask 2 :3; matches     50 atoms
     TI region 1:    4498 atoms
     TI region 2:    4496 atoms
     SC Mask 1 :2; matches      2 atoms

    MBAR - lambda values considered:
      10 total:  0.0000 0.0000 0.2000 0.2000 0.5000 0.5000 0.6000 0.6000 1.0000 1.0000
    Extra energies will be computed    800 times.

--------------------------------------------------------------------------------
   3.  ATOMIC COORDINATES AND VELOCITIES
--------------------------------------------------------------------------------

default_name
 begin time read from input coords =   140.000 ps

     Molecule     1 is partially softcore
     Molecule     2 is partially softcore
 Number of triangulated 3-point waters found:     1482
   Removing shake constraints from HX1   LBM   2 -- N26   LAM   1
   Removing shake constraints from H23   LBM   2 -- N26   LAM   1
 Number of shake restraints removed in TI region  1 :        2
 Number of shake restraints removed in TI region  2 :        0

     Sum of charges for TI region  1 =  -0.00249680
     Skip neutralizing charges...

     Sum of charges for TI region  2 =  -0.00299999
     Skip neutralizing charges...

--------------------------------------------------------------------------------
   4.  RESULTS
 NSTEP =      100   TIME(PS) =     140.200  TEMP(K) =   297.02  PRESS =     0.0
 Etot   =    -11625.3578  EKtot   =      2663.6943  EPtot      =    -14289.0521
 BOND   =         9.9710  ANGLE   =        25.8357  DIHED      =        40.0444
 1-4 NB =        16.2814  1-4 EEL =      -388.2968  VDWAALS    =      2088.8294
 EELEC  =    -16087.6175  EHBOND  =         0.0000  RESTRAINT  =         5.9003
 EAMBER (non-restraint)  =    -14294.9524
 EKCMT  =         0.0000  VIRIAL  =         0.0000  VOLUME     =     45194.2722
                                                    Density    =         0.9959
 DV/DL  =      -148.0004
 ------------------------------------------------------------------------------

      A V E R A G E S   O V E R    1000 S T E P S

 NSTEP =     1000   TIME(PS) =     142.000  TEMP(K) =   303.37  PRESS =     0.0
 Etot   =    -11544.8590  EKtot   =      2720.6374  EPtot      =    -14265.4964
 BOND   =        11.2010  ANGLE   =        27.5300  DIHED      =        39.9650
 1-4 NB =        16.3662  1-4 EEL =      -385.0340  VDWAALS    =      2062.1633
 EELEC  =    -16045.7964  EHBOND  =         0.0000  RESTRAINT  =         8.1086
 EAMBER (non-restraint)  =    -14273.6050
 EKCMT  =         0.0000  VIRIAL  =         0.0000  VOLUME     =     45541.1154
                                                    Density    =         0.9883
 DV/DL  =      -150.4160
 ------------------------------------------------------------------------------

      R M S  F L U C T U A T I O N S

 NSTEP =     1000   TIME(PS) =     142.000  TEMP(K) =     3.97  PRESS =     0.0
 Etot   =        67.5482  EKtot   =        35.5948  EPtot      =        56.9490
 BOND   =         2.7995  ANGLE   =         3.4384  DIHED      =         2.2206
 1-4 NB =         1.0128  1-4 EEL =         3.2337  VDWAALS    =        53.4233
 EELEC  =        82.9504  EHBOND  =         0.0000  RESTRAINT  =         1.7657
 EAMBER (non-restraint)  =        55.1834
 EKCMT  =         0.0000  VIRIAL  =         0.0000  VOLUME     =       208.4052
                                                    Density    =         0.0045
 DV/DL  =         5.7753
 ------------------------------------------------------------------------------

      A V E R A G E S   O V E R    1000 S T E P S

 NSTEP =     1000   TIME(PS) =     142.000  TEMP(K) =   303.37  PRESS =     0.0
 Etot   =    -11546.6307  EKtot   =      2718.8657  EPtot      =    -14265.4964
 BOND   =        11.2010  ANGLE   =        27.5300  DIHED      =        39.9650
 1-4 NB =        16.3662  1-4 EEL =      -385.0340  VDWAALS    =      2062.1633
 EELEC  =    -16045.7964  EHBOND  =         0.0000  RESTRAINT  =         8.1086
 EAMBER (non-restraint)  =    -14273.6050
 EKCMT  =         0.0000  VIRIAL  =         0.0000  VOLUME     =     45541.1154
                                                    Density    =         0.9882
 DV/DL  =      -150.4160
 ------------------------------------------------------------------------------

      R M S  F L U C T U A T I O N S

 NSTEP =     1000   TIME(PS) =     142.000  TEMP(K) =     3.98  PRESS =     0.0
 Etot   =        67.5628  EKtot   =        35.6340  EPtot      =        56.9490
 BOND   =         2.7995  ANGLE   =         3.4384  DIHED      =         2.2206
 1-4 NB =         1.0128  1-4 EEL =         3.2337  VDWAALS    =        53.4233
 EELEC  =        82.9504  EHBOND  =         0.0000  RESTRAINT  =         1.7657
 EAMBER (non-restraint)  =        55.1834
 EKCMT  =         0.0000  VIRIAL  =         0.0000  VOLUME     =       208.4052
                                                    Density    =         0.0045
 DV/DL  =         5.7753
 ------------------------------------------------------------------------------

      DV/DL, AVERAGES OVER    1000 STEPS

 NSTEP =     1000   TIME(PS) =     142.000  TEMP(K) =     3.98  PRESS =     0.0
 Etot   =         0.0000  EKtot   =         0.0000  EPtot      =      -148.9406
 BOND   =         0.0000  ANGLE   =         0.0000  DIHED      =         0.0000
 1-4 NB =         0.0967  1-4 EEL =      -194.1544  VDWAALS    =        -0.3843
 EELEC  =        45.2862  EHBOND  =         0.0000  RESTRAINT  =         0.0000
 EKCMT  =         0.0000  VIRIAL  =         0.0000  VOLUME     =         0.0000
                                                    Density    =         0.0000
 DV/DL  =      -148.9406
 ------------------------------------------------------------------------------

      A V E R A G E S   O V E R    1000 S T E P S

 NSTEP =     2000   TIME(PS) =     144.000  TEMP(K) =   302.67  PRESS =     0.0
 Etot   =    -11609.8354  EKtot   =      2714.4012  EPtot      =    -14324.2365
 BOND   =        10.6014  ANGLE   =        27.7935  DIHED      =        41.1124
 1-4 NB =        16.3771  1-4 EEL =      -385.1192  VDWAALS    =      2097.9315
 EELEC  =    -16141.5076  EHBOND  =         0.0000  RESTRAINT  =         8.5744
 EAMBER (non-restraint)  =    -14332.8109
 EKCMT  =         0.0000  VIRIAL  =         0.0000  VOLUME     =     45561.1323
                                                    Density    =         0.9879
 DV/DL  =      -147.8057
 ------------------------------------------------------------------------------

      R M S  F L U C T U A T I O N S

 NSTEP =     2000   TIME(PS) =     144.000  TEMP(K) =     4.87  PRESS =     0.0
 Etot   =        65.1025  EKtot   =        43.6962  EPtot      =        46.1013
 BOND   =         2.4024  ANGLE   =         3.1706  DIHED      =         1.8706
 1-4 NB =         1.1641  1-4 EEL =         2.9016  VDWAALS    =        50.0227
 EELEC  =        51.4102  EHBOND  =         0.0000  RESTRAINT  =         1.6024
 EAMBER (non-restraint)  =        44.4989
 EKCMT  =         0.0000  VIRIAL  =         0.0000  VOLUME     =       130.6454
                                                    Density    =         0.0028
 DV/DL  =         6.9555
 ------------------------------------------------------------------------------

      A V E R A G E S   O V E R    1000 S T E P S

 NSTEP =     2000   TIME(PS) =     144.000  TEMP(K) =   302.65  PRESS =     0.0
 Etot   =    -11611.7922  EKtot   =      2712.4443  EPtot      =    -14324.2365
 BOND   =        10.6014  ANGLE   =        27.7935  DIHED      =        41.1124
 1-4 NB =        16.3771  1-4 EEL =      -385.1192  VDWAALS    =      2097.9315
 EELEC  =    -16141.5076  EHBOND  =         0.0000  RESTRAINT  =         8.5744
 EAMBER (non-restraint)  =    -14332.8109
 EKCMT  =         0.0000  VIRIAL  =         0.0000  VOLUME     =     45561.1323
                                                    Density    =         0.9878
 DV/DL  =      -147.8057
 ------------------------------------------------------------------------------

      R M S  F L U C T U A T I O N S

 NSTEP =     2000   TIME(PS) =     144.000  TEMP(K) =     4.91  PRESS =     0.0
 Etot   =        65.4395  EKtot   =        43.9938  EPtot      =        46.1013
 BOND   =         2.4024  ANGLE   =         3.1706  DIHED      =         1.8706
 1-4 NB =         1.1641  1-4 EEL =         2.9016  VDWAALS    =        50.0227
 EELEC  =        51.4102  EHBOND  =         0.0000  RESTRAINT  =         1.6024
 EAMBER (non-restraint)  =        44.4989
 EKCMT  =         0.0000  VIRIAL  =         0.0000  VOLUME     =       130.6454
                                                    Density    =         0.0028
 DV/DL  =         6.9555
 ------------------------------------------------------------------------------

      DV/DL, AVERAGES OVER    1000 STEPS

 NSTEP =     2000   TIME(PS) =     144.000  TEMP(K) =     4.91  PRESS =     0.0
 Etot   =         0.0000  EKtot   =         0.0000  EPtot      =      -146.3421
 BOND   =         0.0000  ANGLE   =         0.0000  DIHED      =         0.0000
 1-4 NB =         0.0592  1-4 EEL =      -194.7935  VDWAALS    =        -0.6713
 EELEC  =        49.7088  EHBOND  =         0.0000  RESTRAINT  =         0.0000
 EKCMT  =         0.0000  VIRIAL  =         0.0000  VOLUME     =         0.0000
                                                    Density    =         0.0000
 DV/DL  =      -146.3421
 ------------------------------------------------------------------------------

      A V E R A G E S   O V E R    1000 S T E P S

 NSTEP =    80000   TIME(PS) =     300.000  TEMP(K) =   301.49  PRESS =     0.0
 Etot   =    -11611.6042  EKtot   =      2703.7964  EPtot      =    -14315.4005
 BOND   =        11.0940  ANGLE   =        28.6908  DIHED      =        39.5259
 1-4 NB =        16.4624  1-4 EEL =      -385.2557  VDWAALS    =      2045.0592
 EELEC  =    -16078.6499  EHBOND  =         0.0000  RESTRAINT  =         7.6728
 EAMBER (non-restraint)  =    -14323.0734
 EKCMT  =         0.0000  VIRIAL  =         0.0000  VOLUME     =     45446.4421
                                                    Density    =         0.9904
 DV/DL  =      -152.5041
 ------------------------------------------------------------------------------

      R M S  F L U C T U A T I O N S

 NSTEP =    80000   TIME(PS) =     300.000  TEMP(K) =     4.66  PRESS =     0.0
 Etot   =        47.2902  EKtot   =        41.7547  EPtot      =        34.6658
 BOND   =         2.5577  ANGLE   =         3.4667  DIHED      =         1.8501
 1-4 NB =         1.1993  1-4 EEL =         3.3945  VDWAALS    =        56.3896
 EELEC  =        67.3230  EHBOND  =         0.0000  RESTRAINT  =         1.5738
 EAMBER (non-restraint)  =        33.0921
 EKCMT  =         0.0000  VIRIAL  =         0.0000  VOLUME     =       138.6378
                                                    Density    =         0.0030
 DV/DL  =         5.5554
 ------------------------------------------------------------------------------

      A V E R A G E S   O V E R    1000 S T E P S

 NSTEP =    80000   TIME(PS) =     300.000  TEMP(K) =   301.46  PRESS =     0.0
 Etot   =    -11613.6338  EKtot   =      2701.7668  EPtot      =    -14315.4005
 BOND   =        11.0940  ANGLE   =        28.6908  DIHED      =        39.5259
 1-4 NB =        16.4624  1-4 EEL =      -385.2557  VDWAALS    =      2045.0592
 EELEC  =    -16078.6499  EHBOND  =         0.0000  RESTRAINT  =         7.6728
 EAMBER (non-restraint)  =    -14323.0734
 EKCMT  =         0.0000  VIRIAL  =         0.0000  VOLUME     =     45446.4421
                                                    Density    =         0.9903
 DV/DL  =      -152.5041
 ------------------------------------------------------------------------------

      R M S  F L U C T U A T I O N S

 NSTEP =    80000   TIME(PS) =     300.000  TEMP(K) =     4.65  PRESS =     0.0
 Etot   =        47.1034  EKtot   =        41.6683  EPtot      =        34.6658
 BOND   =         2.5577  ANGLE   =         3.4667  DIHED      =         1.8501
 1-4 NB =         1.1993  1-4 EEL =         3.3945  VDWAALS    =        56.3896
 EELEC  =        67.3230  EHBOND  =         0.0000  RESTRAINT  =         1.5738
 EAMBER (non-restraint)  =        33.0921
 EKCMT  =         0.0000  VIRIAL  =         0.0000  VOLUME     =       138.6378
                                                    Density    =         0.0030
 DV/DL  =         5.5554
 ------------------------------------------------------------------------------

      DV/DL, AVERAGES OVER    1000 STEPS

 NSTEP =    80000   TIME(PS) =     300.000  TEMP(K) =     4.65  PRESS =     0.0
 Etot   =         0.0000  EKtot   =         0.0000  EPtot      =      -150.9855
 BOND   =         0.0000  ANGLE   =         0.0000  DIHED      =         0.0000
 1-4 NB =         0.0892  1-4 EEL =      -194.2544  VDWAALS    =        -0.3543
 EELEC  =        43.0369  EHBOND  =         0.0000  RESTRAINT  =         0.0000
 EKCMT  =         0.0000  VIRIAL  =         0.0000  VOLUME     =         0.0000
                                                    Density    =         0.0000
 DV/DL  =      -150.9855
 ------------------------------------------------------------------------------

      A V E R A G E S   O V E R   80000 S T E P S

 NSTEP =    80000   TIME(PS) =     300.000  TEMP(K) =   300.00  PRESS =     0.0
 Etot   =    -11662.3814  EKtot   =      2690.4905  EPtot      =    -14352.8720
 BOND   =        11.0027  ANGLE   =        27.6825  DIHED      =        39.9783
 1-4 NB =        16.4240  1-4 EEL =      -385.1871  VDWAALS    =      2084.4088
 EELEC  =    -16154.9637  EHBOND  =         0.0000  RESTRAINT  =         7.7825
 EAMBER (non-restraint)  =    -14360.6545
 EKCMT  =         0.0000  VIRIAL  =         0.0000  VOLUME     =     45495.8946
                                                    Density    =         0.9893
 DV/DL  =      -149.5972
 ------------------------------------------------------------------------------

      R M S  F L U C T U A T I O N S

 NSTEP =    80000   TIME(PS) =     300.000  TEMP(K) =     4.53  PRESS =     0.0
 Etot   =        75.1371  EKtot   =        40.6058  EPtot      =        60.9689
 BOND   =         2.7165  ANGLE   =         3.4865  DIHED      =         2.0361
 1-4 NB =         1.1578  1-4 EEL =         3.1848  VDWAALS    =        59.7871
 EELEC  =        97.5190  EHBOND  =         0.0000  RESTRAINT  =         1.7950
 EAMBER (non-restraint)  =        59.1740
 EKCMT  =         0.0000  VIRIAL  =         0.0000  VOLUME     =       327.4545
                                                    Density    =         0.0071
 DV/DL  =         6.2347
 ------------------------------------------------------------------------------

      A V E R A G E S   O V E R   80000 S T E P S

 NSTEP =    80000   TIME(PS) =     300.000  TEMP(K) =   300.01  PRESS =     0.0
 Etot   =    -11664.1386  EKtot   =      2688.7334  EPtot      =    -14352.8720
 BOND   =        11.0027  ANGLE   =        27.6825  DIHED      =        39.9783
 1-4 NB =        16.4240  1-4 EEL =      -385.1871  VDWAALS    =      2084.4088
 EELEC  =    -16154.9637  EHBOND  =         0.0000  RESTRAINT  =         7.7825
 EAMBER (non-restraint)  =    -14360.6545
 EKCMT  =         0.0000  VIRIAL  =         0.0000  VOLUME     =     45495.8946
                                                    Density    =         0.9893
 DV/DL  =      -149.5972
 ------------------------------------------------------------------------------

      R M S  F L U C T U A T I O N S

 NSTEP =    80000   TIME(PS) =     300.000  TEMP(K) =     4.53  PRESS =     0.0
 Etot   =        75.1128  EKtot   =        40.5883  EPtot      =        60.9689
 BOND   =         2.7165  ANGLE   =         3.4865  DIHED      =         2.0361
 1-4 NB =         1.1578  1-4 EEL =         3.1848  VDWAALS    =        59.7871
 EELEC  =        97.5190  EHBOND  =         0.0000  RESTRAINT  =         1.7950
 EAMBER (non-restraint)  =        59.1740
 EKCMT  =         0.0000  VIRIAL  =         0.0000  VOLUME     =       327.4545
                                                    Density    =         0.0071
 DV/DL  =         6.2347
 ------------------------------------------------------------------------------

      DV/DL, AVERAGES OVER   80000 STEPS

 NSTEP =    80000   TIME(PS) =     300.000  TEMP(K) =     4.53  PRESS =     0.0
 Etot   =         0.0000  EKtot   =         0.0000  EPtot      =      -148.1044
 BOND   =         0.0000  ANGLE   =         0.0000  DIHED      =         0.0000
 1-4 NB =         0.0690  1-4 EEL =      -194.1707  VDWAALS    =        -0.2612
 EELEC  =        45.8504  EHBOND  =         0.0000  RESTRAINT  =         0.0000
 EKCMT  =         0.0000  VIRIAL  =         0.0000  VOLUME     =         0.0000
                                                    Density    =         0.0000
 DV/DL  =      -148.1044
 ------------------------------------------------------------------------------
