-------------------------------------------------------
          Amber 20 PMEMD                              2020
          -------------------------------------------------------

  [-O]verwriting output

File Assignments:

 Here is the input file:

NPT MD w/No position restraints and PME (sander)
 &cntrl
  ntx    = 5,
  irest  = 1,
  ntpr   = 100,
  ntwx   = 10000,
  ntwe   = 10000,
  ntwr   = 10000,
  ig     = -1,

  ntb    = 2,
  ntp = 1, pres0 = 1.0, taup = 2.0,gamma_ln = 2.0,
  cut    = 10.0,
  iwrap  = 1,
  barostat = 2,
  ntr = 1, restraint_wt = 10.00,
  restraintmask='!:WAT & !@H=',

  nstlim = 5000,
  t      = 0.0,
  dt     = 0.002,

  temp0  = 300.0,
  tempi  = 300.0,
  ntt    = 3,
  tautp  = 2.0,

  ntf    = 1,
  ntc    = 2,
  iwrap=1, ioutfm=1, ntwv=-1,ntave=1000,
  icfe = 1, ifsc = 1,
  timask1=':1,2',
  timask2=':3',
  scmask1=':2',
  scmask2='',
  ifmbar = 1,
  clambda = 0.0,
  mbar_states = 10,
  mbar_lambda = 0.0, 0.0, 0.2, 0.2, 0.5, 0.5, 0.6, 0.6, 1.0, 1.0,
&end
 /

Note: ig = -1. Setting random seed to   843368 based on wallclock time in
      microseconds.

--------------------------------------------------------------------------------
   1.  RESOURCE   USE:
--------------------------------------------------------------------------------

 getting box info from netcdf restart file
 NATOM  =    4548 NTYPES =      17 NBONH =    4492 MBONA  =      62
 NTHETH =     105 MTHETA =      88 NPHIH =     188 MPHIA  =     154
 NHPARM =       0 NPARM  =       0 NNB   =    6494 NRES   =    1485
 NBONA  =      62 NTHETA =      88 NPHIA =     154 NUMBND =      22
 NUMANG =      36 NPTRA  =      19 NATYP =      18 NPHB   =       1
 IFBOX  =       1 NMXRS  =      50 IFCAP =       0 NEXTRA =       0
 NCOPY  =       0

     BOX TYPE: RECTILINEAR

--------------------------------------------------------------------------------
   2.  CONTROL  DATA  FOR  THE  RUN
--------------------------------------------------------------------------------

default_name

General flags:
     imin    =       0, nmropt  =       0

Nature and format of input:
     ntx     =       5, irest   =       1, ntrx    =       1

Nature and format of output:
     ntxo    =       2, ntpr    =     100, ntrx    =       1, ntwr    =   10000
     iwrap   =       1, ntwx    =   10000, ntwv    =      -1, ntwe    =   10000
     ioutfm  =       1, ntwprt  =       0, idecomp =       0, rbornstat=      0

Potential function:
     ntf     =       1, ntb     =       2, igb     =       0, nsnb    =      25
     ipol    =       0, gbsa    =       0, iesp    =       0
     dielc   =   1.00000, cut     =  10.00000, intdiel =   1.00000

Frozen or restrained atoms:
     ibelly  =       0, ntr     =       1
     restraint_wt =  10.00000

Molecular dynamics:
     nstlim  =      5000, nscm    =         0, nrespa  =         1
     t       =   0.00000, dt      =   0.00200, vlimit  =  -1.00000

Langevin dynamics temperature regulation:
     ig      =  843368
     temp0   = 300.00000, tempi   = 300.00000, gamma_ln=   2.00000

Pressure regulation:
     ntp     =       1
     pres0   =   1.00000, comp    =  44.60000, taup    =   2.00000
     Monte-Carlo Barostat:
     mcbarint  =     100

SHAKE:
     ntc     =       2, jfastw  =       0
     tol     =   0.00001

Free energy options:
     icfe    =       1, ifsc    =       1, klambda =       1
     clambda =  0.0000, scalpha =  0.5000, scbeta  = 12.0000
     sceeorder =       2
     dynlmb =  0.0000 logdvdl =       0

FEP MBAR options:
     ifmbar  =       1,  bar_intervall =      100
     mbar_states =      10

Ewald parameters:
     verbose =       0, ew_type =       0, nbflag  =       1, use_pme =       1
     vdwmeth =       1, eedmeth =       1, netfrc  =       1
     Box X =   39.547   Box Y =   41.086   Box Z =   38.954
     Alpha =   90.000   Beta  =   90.000   Gamma =   90.000
     NFFT1 =   40       NFFT2 =   48       NFFT3 =   40
     Cutoff=   10.000   Tol   =0.100E-04
     Ewald Coefficient =  0.27511
     Interpolation order =    4

    LOADING THE CONSTRAINED ATOMS AS GROUPS

   5.  REFERENCE ATOM COORDINATES

  default_name
     Mask !:WAT & !@H=; matches    56 atoms
     TI Mask 1 :1,2; matches     52 atoms
     TI Mask 2 :3; matches     50 atoms
     TI region 1:    4498 atoms
     TI region 2:    4496 atoms
     SC Mask 1 :2; matches      2 atoms

    MBAR - lambda values considered:
      10 total:  0.0000 0.0000 0.2000 0.2000 0.5000 0.5000 0.6000 0.6000 1.0000 1.0000
    Extra energies will be computed     50 times.

--------------------------------------------------------------------------------
   3.  ATOMIC COORDINATES AND VELOCITIES
--------------------------------------------------------------------------------

default_name
 begin time read from input coords =   100.000 ps

     Molecule     1 is partially softcore
     Molecule     2 is partially softcore
 Number of triangulated 3-point waters found:     1482
   Removing shake constraints from HX1   LBM   2 -- N26   LAM   1
   Removing shake constraints from H23   LBM   2 -- N26   LAM   1
 Number of shake restraints removed in TI region  1 :        2
 Number of shake restraints removed in TI region  2 :        0

     Sum of charges for TI region  1 =  -0.00249680
     Skip neutralizing charges...

     Sum of charges for TI region  2 =  -0.00299999
     Skip neutralizing charges...

--------------------------------------------------------------------------------
   4.  RESULTS
 NSTEP =      100   TIME(PS) =     100.200  TEMP(K) =   136.67  PRESS =     0.0
 Etot   =    -15367.0151  EKtot   =      1225.6793  EPtot      =    -16592.6944
 BOND   =         4.4306  ANGLE   =        20.0875  DIHED      =        35.2931
 1-4 NB =        16.4234  1-4 EEL =      -382.5328  VDWAALS    =      3223.2622
 EELEC  =    -19513.0906  EHBOND  =         0.0000  RESTRAINT  =         3.4323
 EAMBER (non-restraint)  =    -16596.1266
 EKCMT  =         0.0000  VIRIAL  =         0.0000  VOLUME     =     63547.4286
                                                    Density    =         0.7083
 DV/DL  =      -139.3723
 ------------------------------------------------------------------------------

      A V E R A G E S   O V E R    1000 S T E P S

 NSTEP =     1000   TIME(PS) =     102.000  TEMP(K) =   230.36  PRESS =     0.0
 Etot   =    -13149.8268  EKtot   =      2065.9168  EPtot      =    -15215.7436
 BOND   =         9.4321  ANGLE   =        26.1584  DIHED      =        37.1041
 1-4 NB =        16.9190  1-4 EEL =      -385.2703  VDWAALS    =      2652.8424
 EELEC  =    -17579.1632  EHBOND  =         0.0000  RESTRAINT  =         6.2341
 EAMBER (non-restraint)  =    -15221.9776
 EKCMT  =         0.0000  VIRIAL  =         0.0000  VOLUME     =     63558.2775
                                                    Density    =         0.7081
 DV/DL  =      -146.8020
 ------------------------------------------------------------------------------

      R M S  F L U C T U A T I O N S

 NSTEP =     1000   TIME(PS) =     102.000  TEMP(K) =    54.73  PRESS =     0.0
 Etot   =      1366.6240  EKtot   =       490.8521  EPtot      =       880.5134
 BOND   =         2.7744  ANGLE   =         5.0183  DIHED      =         2.0861
 1-4 NB =         1.1711  1-4 EEL =         2.9349  VDWAALS    =       408.6490
 EELEC  =      1278.0718  EHBOND  =         0.0000  RESTRAINT  =         2.0033
 EAMBER (non-restraint)  =       878.5102
 EKCMT  =         0.0000  VIRIAL  =         0.0000  VOLUME     =       104.0298
                                                    Density    =         0.0012
 DV/DL  =         4.8105
 ------------------------------------------------------------------------------

      A V E R A G E S   O V E R    1000 S T E P S

 NSTEP =     1000   TIME(PS) =     102.000  TEMP(K) =   230.36  PRESS =     0.0
 Etot   =    -13151.1705  EKtot   =      2064.5730  EPtot      =    -15215.7436
 BOND   =         9.4321  ANGLE   =        26.1584  DIHED      =        37.1041
 1-4 NB =        16.9190  1-4 EEL =      -385.2703  VDWAALS    =      2652.8424
 EELEC  =    -17579.1632  EHBOND  =         0.0000  RESTRAINT  =         6.2341
 EAMBER (non-restraint)  =    -15221.9776
 EKCMT  =         0.0000  VIRIAL  =         0.0000  VOLUME     =     63558.2775
                                                    Density    =         0.7081
 DV/DL  =      -146.8020
 ------------------------------------------------------------------------------

      R M S  F L U C T U A T I O N S

 NSTEP =     1000   TIME(PS) =     102.000  TEMP(K) =    54.71  PRESS =     0.0
 Etot   =      1366.1227  EKtot   =       490.3662  EPtot      =       880.5134
 BOND   =         2.7744  ANGLE   =         5.0183  DIHED      =         2.0861
 1-4 NB =         1.1711  1-4 EEL =         2.9349  VDWAALS    =       408.6490
 EELEC  =      1278.0718  EHBOND  =         0.0000  RESTRAINT  =         2.0033
 EAMBER (non-restraint)  =       878.5102
 EKCMT  =         0.0000  VIRIAL  =         0.0000  VOLUME     =       104.0298
                                                    Density    =         0.0012
 DV/DL  =         4.8105
 ------------------------------------------------------------------------------

      DV/DL, AVERAGES OVER    1000 STEPS

 NSTEP =     1000   TIME(PS) =     102.000  TEMP(K) =    54.71  PRESS =     0.0
 Etot   =         0.0000  EKtot   =         0.0000  EPtot      =      -145.3552
 BOND   =         0.0000  ANGLE   =         0.0000  DIHED      =         0.0000
 1-4 NB =        -0.0265  1-4 EEL =      -193.7805  VDWAALS    =        -0.0213
 EELEC  =        47.5711  EHBOND  =         0.0000  RESTRAINT  =         0.0000
 EKCMT  =         0.0000  VIRIAL  =         0.0000  VOLUME     =         0.0000
                                                    Density    =         0.0000
 DV/DL  =      -145.3552
 ------------------------------------------------------------------------------

      A V E R A G E S   O V E R    1000 S T E P S

 NSTEP =     2000   TIME(PS) =     104.000  TEMP(K) =   292.80  PRESS =     0.0
 Etot   =    -11284.5067  EKtot   =      2625.9171  EPtot      =    -13910.4238
 BOND   =        10.8435  ANGLE   =        27.4825  DIHED      =        39.2341
 1-4 NB =        17.1178  1-4 EEL =      -385.4162  VDWAALS    =      2099.1242
 EELEC  =    -15725.8941  EHBOND  =         0.0000  RESTRAINT  =         7.0844
 EAMBER (non-restraint)  =    -13917.5082
 EKCMT  =         0.0000  VIRIAL  =         0.0000  VOLUME     =     63127.1597
                                                    Density    =         0.7130
 DV/DL  =      -146.3165
 ------------------------------------------------------------------------------

      R M S  F L U C T U A T I O N S

 NSTEP =     2000   TIME(PS) =     104.000  TEMP(K) =     6.86  PRESS =     0.0
 Etot   =       183.1952  EKtot   =        61.5436  EPtot      =       132.5290
 BOND   =         2.7115  ANGLE   =         3.2670  DIHED      =         2.0029
 1-4 NB =         1.0986  1-4 EEL =         2.8040  VDWAALS    =        85.4233
 EELEC  =       207.8623  EHBOND  =         0.0000  RESTRAINT  =         1.4332
 EAMBER (non-restraint)  =       131.0958
 EKCMT  =         0.0000  VIRIAL  =         0.0000  VOLUME     =       322.4126
                                                    Density    =         0.0036
 DV/DL  =         5.3235
 ------------------------------------------------------------------------------

      A V E R A G E S   O V E R    1000 S T E P S

 NSTEP =     2000   TIME(PS) =     104.000  TEMP(K) =   292.83  PRESS =     0.0
 Etot   =    -11285.9862  EKtot   =      2624.4376  EPtot      =    -13910.4238
 BOND   =        10.8435  ANGLE   =        27.4825  DIHED      =        39.2341
 1-4 NB =        17.1178  1-4 EEL =      -385.4162  VDWAALS    =      2099.1242
 EELEC  =    -15725.8941  EHBOND  =         0.0000  RESTRAINT  =         7.0844
 EAMBER (non-restraint)  =    -13917.5082
 EKCMT  =         0.0000  VIRIAL  =         0.0000  VOLUME     =     63127.1597
                                                    Density    =         0.7129
 DV/DL  =      -146.3165
 ------------------------------------------------------------------------------

      R M S  F L U C T U A T I O N S

 NSTEP =     2000   TIME(PS) =     104.000  TEMP(K) =     6.90  PRESS =     0.0
 Etot   =       183.5738  EKtot   =        61.8745  EPtot      =       132.5290
 BOND   =         2.7115  ANGLE   =         3.2670  DIHED      =         2.0029
 1-4 NB =         1.0986  1-4 EEL =         2.8040  VDWAALS    =        85.4233
 EELEC  =       207.8623  EHBOND  =         0.0000  RESTRAINT  =         1.4332
 EAMBER (non-restraint)  =       131.0958
 EKCMT  =         0.0000  VIRIAL  =         0.0000  VOLUME     =       322.4126
                                                    Density    =         0.0036
 DV/DL  =         5.3235
 ------------------------------------------------------------------------------

      DV/DL, AVERAGES OVER    1000 STEPS

 NSTEP =     2000   TIME(PS) =     104.000  TEMP(K) =     6.90  PRESS =     0.0
 Etot   =         0.0000  EKtot   =         0.0000  EPtot      =      -144.8594
 BOND   =         0.0000  ANGLE   =         0.0000  DIHED      =         0.0000
 1-4 NB =        -0.0171  1-4 EEL =      -193.8788  VDWAALS    =        -0.2345
 EELEC  =        48.8645  EHBOND  =         0.0000  RESTRAINT  =         0.0000
 EKCMT  =         0.0000  VIRIAL  =         0.0000  VOLUME     =         0.0000
                                                    Density    =         0.0000
 DV/DL  =      -144.8594
 ------------------------------------------------------------------------------

      A V E R A G E S   O V E R    1000 S T E P S

 NSTEP =     5000   TIME(PS) =     110.000  TEMP(K) =   301.46  PRESS =     0.0
 Etot   =    -11183.5381  EKtot   =      2703.5120  EPtot      =    -13887.0501
 BOND   =        10.8529  ANGLE   =        26.5290  DIHED      =        39.4468
 1-4 NB =        16.9904  1-4 EEL =      -385.8695  VDWAALS    =      2040.7438
 EELEC  =    -15642.9640  EHBOND  =         0.0000  RESTRAINT  =         7.2206
 EAMBER (non-restraint)  =    -13894.2707
 EKCMT  =         0.0000  VIRIAL  =         0.0000  VOLUME     =     59266.0678
                                                    Density    =         0.7595
 DV/DL  =      -149.1967
 ------------------------------------------------------------------------------

      R M S  F L U C T U A T I O N S

 NSTEP =     5000   TIME(PS) =     110.000  TEMP(K) =     5.42  PRESS =     0.0
 Etot   =        66.8940  EKtot   =        48.6111  EPtot      =        45.3655
 BOND   =         2.5332  ANGLE   =         3.1115  DIHED      =         1.8616
 1-4 NB =         1.2505  1-4 EEL =         3.1126  VDWAALS    =        64.6355
 EELEC  =        74.9724  EHBOND  =         0.0000  RESTRAINT  =         1.6227
 EAMBER (non-restraint)  =        43.7428
 EKCMT  =         0.0000  VIRIAL  =         0.0000  VOLUME     =       371.7792
                                                    Density    =         0.0048
 DV/DL  =         5.2165
 ------------------------------------------------------------------------------

      A V E R A G E S   O V E R    1000 S T E P S

 NSTEP =     5000   TIME(PS) =     110.000  TEMP(K) =   301.45  PRESS =     0.0
 Etot   =    -11185.3856  EKtot   =      2701.6645  EPtot      =    -13887.0501
 BOND   =        10.8529  ANGLE   =        26.5290  DIHED      =        39.4468
 1-4 NB =        16.9904  1-4 EEL =      -385.8695  VDWAALS    =      2040.7438
 EELEC  =    -15642.9640  EHBOND  =         0.0000  RESTRAINT  =         7.2206
 EAMBER (non-restraint)  =    -13894.2707
 EKCMT  =         0.0000  VIRIAL  =         0.0000  VOLUME     =     59266.0678
                                                    Density    =         0.7594
 DV/DL  =      -149.1967
 ------------------------------------------------------------------------------

      R M S  F L U C T U A T I O N S

 NSTEP =     5000   TIME(PS) =     110.000  TEMP(K) =     5.43  PRESS =     0.0
 Etot   =        66.8168  EKtot   =        48.6339  EPtot      =        45.3655
 BOND   =         2.5332  ANGLE   =         3.1115  DIHED      =         1.8616
 1-4 NB =         1.2505  1-4 EEL =         3.1126  VDWAALS    =        64.6355
 EELEC  =        74.9724  EHBOND  =         0.0000  RESTRAINT  =         1.6227
 EAMBER (non-restraint)  =        43.7428
 EKCMT  =         0.0000  VIRIAL  =         0.0000  VOLUME     =       371.7792
                                                    Density    =         0.0048
 DV/DL  =         5.2165
 ------------------------------------------------------------------------------

      DV/DL, AVERAGES OVER    1000 STEPS

 NSTEP =     5000   TIME(PS) =     110.000  TEMP(K) =     5.43  PRESS =     0.0
 Etot   =         0.0000  EKtot   =         0.0000  EPtot      =      -147.6994
 BOND   =         0.0000  ANGLE   =         0.0000  DIHED      =         0.0000
 1-4 NB =         0.0695  1-4 EEL =      -194.1268  VDWAALS    =        -0.4071
 EELEC  =        46.7206  EHBOND  =         0.0000  RESTRAINT  =         0.0000
 EKCMT  =         0.0000  VIRIAL  =         0.0000  VOLUME     =         0.0000
                                                    Density    =         0.0000
 DV/DL  =      -147.6994
 ------------------------------------------------------------------------------

      A V E R A G E S   O V E R    5000 S T E P S

 NSTEP =     5000   TIME(PS) =     110.000  TEMP(K) =   285.90  PRESS =     0.0
 Etot   =    -11554.7032  EKtot   =      2563.9915  EPtot      =    -14118.6946
 BOND   =        11.0912  ANGLE   =        27.4241  DIHED      =        38.8783
 1-4 NB =        17.0247  1-4 EEL =      -385.5629  VDWAALS    =      2173.2274
 EELEC  =    -16007.9236  EHBOND  =         0.0000  RESTRAINT  =         7.1462
 EAMBER (non-restraint)  =    -14125.8409
 EKCMT  =         0.0000  VIRIAL  =         0.0000  VOLUME     =     61727.0131
                                                    Density    =         0.7297
 DV/DL  =      -147.9932
 ------------------------------------------------------------------------------

      R M S  F L U C T U A T I O N S

 NSTEP =     5000   TIME(PS) =     110.000  TEMP(K) =    37.52  PRESS =     0.0
 Etot   =      1011.8818  EKtot   =       336.4690  EPtot      =       680.5971
 BOND   =         3.0083  ANGLE   =         3.8579  DIHED      =         2.2577
 1-4 NB =         1.1707  1-4 EEL =         2.9255  VDWAALS    =       308.9731
 EELEC  =       980.5897  EHBOND  =         0.0000  RESTRAINT  =         1.8375
 EAMBER (non-restraint)  =       678.7596
 EKCMT  =         0.0000  VIRIAL  =         0.0000  VOLUME     =      1645.0804
                                                    Density    =         0.0197
 DV/DL  =         5.6894
 ------------------------------------------------------------------------------

      A V E R A G E S   O V E R    5000 S T E P S

 NSTEP =     5000   TIME(PS) =     110.000  TEMP(K) =   285.90  PRESS =     0.0
 Etot   =    -11556.4277  EKtot   =      2562.2669  EPtot      =    -14118.6946
 BOND   =        11.0912  ANGLE   =        27.4241  DIHED      =        38.8783
 1-4 NB =        17.0247  1-4 EEL =      -385.5629  VDWAALS    =      2173.2274
 EELEC  =    -16007.9236  EHBOND  =         0.0000  RESTRAINT  =         7.1462
 EAMBER (non-restraint)  =    -14125.8409
 EKCMT  =         0.0000  VIRIAL  =         0.0000  VOLUME     =     61727.0131
                                                    Density    =         0.7296
 DV/DL  =      -147.9932
 ------------------------------------------------------------------------------

      R M S  F L U C T U A T I O N S

 NSTEP =     5000   TIME(PS) =     110.000  TEMP(K) =    37.51  PRESS =     0.0
 Etot   =      1011.5945  EKtot   =       336.1706  EPtot      =       680.5971
 BOND   =         3.0083  ANGLE   =         3.8579  DIHED      =         2.2577
 1-4 NB =         1.1707  1-4 EEL =         2.9255  VDWAALS    =       308.9731
 EELEC  =       980.5897  EHBOND  =         0.0000  RESTRAINT  =         1.8375
 EAMBER (non-restraint)  =       678.7596
 EKCMT  =         0.0000  VIRIAL  =         0.0000  VOLUME     =      1645.0804
                                                    Density    =         0.0197
 DV/DL  =         5.6894
 ------------------------------------------------------------------------------

      DV/DL, AVERAGES OVER    5000 STEPS

 NSTEP =     5000   TIME(PS) =     110.000  TEMP(K) =    37.51  PRESS =     0.0
 Etot   =         0.0000  EKtot   =         0.0000  EPtot      =      -146.5168
 BOND   =         0.0000  ANGLE   =         0.0000  DIHED      =         0.0000
 1-4 NB =         0.0145  1-4 EEL =      -193.9828  VDWAALS    =        -0.2743
 EELEC  =        47.3682  EHBOND  =         0.0000  RESTRAINT  =         0.0000
 EKCMT  =         0.0000  VIRIAL  =         0.0000  VOLUME     =         0.0000
                                                    Density    =         0.0000
 DV/DL  =      -146.5168
 ------------------------------------------------------------------------------
