-------------------------------------------------------
          Amber 20 PMEMD                              2020
          -------------------------------------------------------

  [-O]verwriting output

File Assignments:

 Here is the input file:

NPT MD w/No position restraints and PME (sander)
 &cntrl
  ntx    = 5,
  irest  = 1,
  ntpr   = 100,
  ntwx   = 10000,
  ntwe   = 10000,
  ntwr   = 10000,
  ig     = -1,

  ntb    = 2,
  ntp = 1, pres0 = 1.0, taup = 2.0,gamma_ln = 2.0,
  cut    = 10.0,
  iwrap  = 1,
  barostat = 2,
  ntr = 1, restraint_wt = 10.00,
  restraintmask='!:WAT & !@H=',

  nstlim = 5000,
  t      = 0.0,
  dt     = 0.002,

  temp0  = 300.0,
  tempi  = 300.0,
  ntt    = 3,
  tautp  = 2.0,

  ntf    = 1,
  ntc    = 2,
  iwrap=1, ioutfm=1, ntwv=-1,ntave=1000,
  icfe = 1, ifsc = 1,
  timask1=':1,2',
  timask2=':3',
  scmask1=':2',
  scmask2='',
  ifmbar = 1,
  clambda = 0.0,
  mbar_states = 10,
  mbar_lambda = 0.0, 0.0, 0.2, 0.2, 0.5, 0.5, 0.6, 0.6, 1.0, 1.0,
&end
 /

Note: ig = -1. Setting random seed to   800882 based on wallclock time in
      microseconds.

--------------------------------------------------------------------------------
   1.  RESOURCE   USE:
--------------------------------------------------------------------------------

 getting box info from netcdf restart file
 NATOM  =    4548 NTYPES =      17 NBONH =    4492 MBONA  =      62
 NTHETH =     105 MTHETA =      88 NPHIH =     188 MPHIA  =     154
 NHPARM =       0 NPARM  =       0 NNB   =    6494 NRES   =    1485
 NBONA  =      62 NTHETA =      88 NPHIA =     154 NUMBND =      22
 NUMANG =      36 NPTRA  =      19 NATYP =      18 NPHB   =       1
 IFBOX  =       1 NMXRS  =      50 IFCAP =       0 NEXTRA =       0
 NCOPY  =       0

     BOX TYPE: RECTILINEAR

--------------------------------------------------------------------------------
   2.  CONTROL  DATA  FOR  THE  RUN
--------------------------------------------------------------------------------

default_name

General flags:
     imin    =       0, nmropt  =       0

Nature and format of input:
     ntx     =       5, irest   =       1, ntrx    =       1

Nature and format of output:
     ntxo    =       2, ntpr    =     100, ntrx    =       1, ntwr    =   10000
     iwrap   =       1, ntwx    =   10000, ntwv    =      -1, ntwe    =   10000
     ioutfm  =       1, ntwprt  =       0, idecomp =       0, rbornstat=      0

Potential function:
     ntf     =       1, ntb     =       2, igb     =       0, nsnb    =      25
     ipol    =       0, gbsa    =       0, iesp    =       0
     dielc   =   1.00000, cut     =  10.00000, intdiel =   1.00000

Frozen or restrained atoms:
     ibelly  =       0, ntr     =       1
     restraint_wt =  10.00000

Molecular dynamics:
     nstlim  =      5000, nscm    =         0, nrespa  =         1
     t       =   0.00000, dt      =   0.00200, vlimit  =  -1.00000

Langevin dynamics temperature regulation:
     ig      =  800882
     temp0   = 300.00000, tempi   = 300.00000, gamma_ln=   2.00000

Pressure regulation:
     ntp     =       1
     pres0   =   1.00000, comp    =  44.60000, taup    =   2.00000
     Monte-Carlo Barostat:
     mcbarint  =     100

SHAKE:
     ntc     =       2, jfastw  =       0
     tol     =   0.00001

Free energy options:
     icfe    =       1, ifsc    =       1, klambda =       1
     clambda =  0.0000, scalpha =  0.5000, scbeta  = 12.0000
     sceeorder =       2
     dynlmb =  0.0000 logdvdl =       0

FEP MBAR options:
     ifmbar  =       1,  bar_intervall =      100
     mbar_states =      10

Ewald parameters:
     verbose =       0, ew_type =       0, nbflag  =       1, use_pme =       1
     vdwmeth =       1, eedmeth =       1, netfrc  =       1
     Box X =   37.197   Box Y =   38.645   Box Z =   36.640
     Alpha =   90.000   Beta  =   90.000   Gamma =   90.000
     NFFT1 =   40       NFFT2 =   40       NFFT3 =   40
     Cutoff=   10.000   Tol   =0.100E-04
     Ewald Coefficient =  0.27511
     Interpolation order =    4

    LOADING THE CONSTRAINED ATOMS AS GROUPS

   5.  REFERENCE ATOM COORDINATES

  default_name
     Mask !:WAT & !@H=; matches    56 atoms
     TI Mask 1 :1,2; matches     52 atoms
     TI Mask 2 :3; matches     50 atoms
     TI region 1:    4498 atoms
     TI region 2:    4496 atoms
     SC Mask 1 :2; matches      2 atoms

    MBAR - lambda values considered:
      10 total:  0.0000 0.0000 0.2000 0.2000 0.5000 0.5000 0.6000 0.6000 1.0000 1.0000
    Extra energies will be computed     50 times.

--------------------------------------------------------------------------------
   3.  ATOMIC COORDINATES AND VELOCITIES
--------------------------------------------------------------------------------

default_name
 begin time read from input coords =   120.000 ps

     Molecule     1 is partially softcore
     Molecule     2 is partially softcore
 Number of triangulated 3-point waters found:     1482
   Removing shake constraints from HX1   LBM   2 -- N26   LAM   1
   Removing shake constraints from H23   LBM   2 -- N26   LAM   1
 Number of shake restraints removed in TI region  1 :        2
 Number of shake restraints removed in TI region  2 :        0

     Sum of charges for TI region  1 =  -0.00249680
     Skip neutralizing charges...

     Sum of charges for TI region  2 =  -0.00299999
     Skip neutralizing charges...

--------------------------------------------------------------------------------
   4.  RESULTS
 NSTEP =      100   TIME(PS) =     120.200  TEMP(K) =   300.18  PRESS =     0.0
 Etot   =    -11427.1424  EKtot   =      2692.0595  EPtot      =    -14119.2019
 BOND   =        10.6161  ANGLE   =        28.2038  DIHED      =        38.9146
 1-4 NB =        15.9860  1-4 EEL =      -381.4198  VDWAALS    =      2044.9715
 EELEC  =    -15886.1984  EHBOND  =         0.0000  RESTRAINT  =         9.7242
 EAMBER (non-restraint)  =    -14128.9261
 EKCMT  =         0.0000  VIRIAL  =         0.0000  VOLUME     =     52668.8455
                                                    Density    =         0.8546
 DV/DL  =      -144.2701
 ------------------------------------------------------------------------------

      A V E R A G E S   O V E R    1000 S T E P S

 NSTEP =     1000   TIME(PS) =     122.000  TEMP(K) =   299.98  PRESS =     0.0
 Etot   =    -11384.3018  EKtot   =      2690.2796  EPtot      =    -14074.5813
 BOND   =        11.1502  ANGLE   =        27.8790  DIHED      =        39.6200
 1-4 NB =        15.8850  1-4 EEL =      -384.5199  VDWAALS    =      2051.7268
 EELEC  =    -15845.1866  EHBOND  =         0.0000  RESTRAINT  =         8.8641
 EAMBER (non-restraint)  =    -14083.4454
 EKCMT  =         0.0000  VIRIAL  =         0.0000  VOLUME     =     52238.4166
                                                    Density    =         0.8617
 DV/DL  =      -150.0467
 ------------------------------------------------------------------------------

      R M S  F L U C T U A T I O N S

 NSTEP =     1000   TIME(PS) =     122.000  TEMP(K) =     4.12  PRESS =     0.0
 Etot   =        43.1393  EKtot   =        36.9564  EPtot      =        40.2161
 BOND   =         2.6474  ANGLE   =         3.3232  DIHED      =         1.7605
 1-4 NB =         0.9619  1-4 EEL =         2.5977  VDWAALS    =        62.6899
 EELEC  =        78.9644  EHBOND  =         0.0000  RESTRAINT  =         2.1982
 EAMBER (non-restraint)  =        38.0179
 EKCMT  =         0.0000  VIRIAL  =         0.0000  VOLUME     =       429.1329
                                                    Density    =         0.0071
 DV/DL  =         5.2794
 ------------------------------------------------------------------------------

      A V E R A G E S   O V E R    1000 S T E P S

 NSTEP =     1000   TIME(PS) =     122.000  TEMP(K) =   299.99  PRESS =     0.0
 Etot   =    -11385.9726  EKtot   =      2688.6088  EPtot      =    -14074.5813
 BOND   =        11.1502  ANGLE   =        27.8790  DIHED      =        39.6200
 1-4 NB =        15.8850  1-4 EEL =      -384.5199  VDWAALS    =      2051.7268
 EELEC  =    -15845.1866  EHBOND  =         0.0000  RESTRAINT  =         8.8641
 EAMBER (non-restraint)  =    -14083.4454
 EKCMT  =         0.0000  VIRIAL  =         0.0000  VOLUME     =     52238.4166
                                                    Density    =         0.8616
 DV/DL  =      -150.0467
 ------------------------------------------------------------------------------

      R M S  F L U C T U A T I O N S

 NSTEP =     1000   TIME(PS) =     122.000  TEMP(K) =     4.12  PRESS =     0.0
 Etot   =        43.2927  EKtot   =        36.9639  EPtot      =        40.2161
 BOND   =         2.6474  ANGLE   =         3.3232  DIHED      =         1.7605
 1-4 NB =         0.9619  1-4 EEL =         2.5977  VDWAALS    =        62.6899
 EELEC  =        78.9644  EHBOND  =         0.0000  RESTRAINT  =         2.1982
 EAMBER (non-restraint)  =        38.0179
 EKCMT  =         0.0000  VIRIAL  =         0.0000  VOLUME     =       429.1329
                                                    Density    =         0.0071
 DV/DL  =         5.2794
 ------------------------------------------------------------------------------

      DV/DL, AVERAGES OVER    1000 STEPS

 NSTEP =     1000   TIME(PS) =     122.000  TEMP(K) =     4.12  PRESS =     0.0
 Etot   =         0.0000  EKtot   =         0.0000  EPtot      =      -148.5505
 BOND   =         0.0000  ANGLE   =         0.0000  DIHED      =         0.0000
 1-4 NB =         0.0630  1-4 EEL =      -194.7154  VDWAALS    =        -0.1551
 EELEC  =        45.4558  EHBOND  =         0.0000  RESTRAINT  =         0.0000
 EKCMT  =         0.0000  VIRIAL  =         0.0000  VOLUME     =         0.0000
                                                    Density    =         0.0000
 DV/DL  =      -148.5505
 ------------------------------------------------------------------------------

      A V E R A G E S   O V E R    1000 S T E P S

 NSTEP =     2000   TIME(PS) =     124.000  TEMP(K) =   301.36  PRESS =     0.0
 Etot   =    -11351.7019  EKtot   =      2702.6132  EPtot      =    -14054.3151
 BOND   =        10.4061  ANGLE   =        27.9598  DIHED      =        40.0066
 1-4 NB =        15.9434  1-4 EEL =      -384.6565  VDWAALS    =      2021.3959
 EELEC  =    -15794.7450  EHBOND  =         0.0000  RESTRAINT  =         9.3747
 EAMBER (non-restraint)  =    -14063.6899
 EKCMT  =         0.0000  VIRIAL  =         0.0000  VOLUME     =     50718.4323
                                                    Density    =         0.8874
 DV/DL  =      -149.7891
 ------------------------------------------------------------------------------

      R M S  F L U C T U A T I O N S

 NSTEP =     2000   TIME(PS) =     124.000  TEMP(K) =     4.04  PRESS =     0.0
 Etot   =        37.7376  EKtot   =        36.1920  EPtot      =        38.0896
 BOND   =         2.4964  ANGLE   =         3.1840  DIHED      =         1.9912
 1-4 NB =         1.1815  1-4 EEL =         3.2138  VDWAALS    =        55.7265
 EELEC  =        72.5515  EHBOND  =         0.0000  RESTRAINT  =         1.8906
 EAMBER (non-restraint)  =        36.1990
 EKCMT  =         0.0000  VIRIAL  =         0.0000  VOLUME     =       311.9571
                                                    Density    =         0.0054
 DV/DL  =         6.3873
 ------------------------------------------------------------------------------

      A V E R A G E S   O V E R    1000 S T E P S

 NSTEP =     2000   TIME(PS) =     124.000  TEMP(K) =   301.40  PRESS =     0.0
 Etot   =    -11353.0773  EKtot   =      2701.2378  EPtot      =    -14054.3151
 BOND   =        10.4061  ANGLE   =        27.9598  DIHED      =        40.0066
 1-4 NB =        15.9434  1-4 EEL =      -384.6565  VDWAALS    =      2021.3959
 EELEC  =    -15794.7450  EHBOND  =         0.0000  RESTRAINT  =         9.3747
 EAMBER (non-restraint)  =    -14063.6899
 EKCMT  =         0.0000  VIRIAL  =         0.0000  VOLUME     =     50718.4323
                                                    Density    =         0.8874
 DV/DL  =      -149.7891
 ------------------------------------------------------------------------------

      R M S  F L U C T U A T I O N S

 NSTEP =     2000   TIME(PS) =     124.000  TEMP(K) =     4.04  PRESS =     0.0
 Etot   =        37.7439  EKtot   =        36.1830  EPtot      =        38.0896
 BOND   =         2.4964  ANGLE   =         3.1840  DIHED      =         1.9912
 1-4 NB =         1.1815  1-4 EEL =         3.2138  VDWAALS    =        55.7265
 EELEC  =        72.5515  EHBOND  =         0.0000  RESTRAINT  =         1.8906
 EAMBER (non-restraint)  =        36.1990
 EKCMT  =         0.0000  VIRIAL  =         0.0000  VOLUME     =       311.9571
                                                    Density    =         0.0054
 DV/DL  =         6.3873
 ------------------------------------------------------------------------------

      DV/DL, AVERAGES OVER    1000 STEPS

 NSTEP =     2000   TIME(PS) =     124.000  TEMP(K) =     4.04  PRESS =     0.0
 Etot   =         0.0000  EKtot   =         0.0000  EPtot      =      -148.2871
 BOND   =         0.0000  ANGLE   =         0.0000  DIHED      =         0.0000
 1-4 NB =         0.0704  1-4 EEL =      -194.6321  VDWAALS    =        -0.0586
 EELEC  =        46.1369  EHBOND  =         0.0000  RESTRAINT  =         0.0000
 EKCMT  =         0.0000  VIRIAL  =         0.0000  VOLUME     =         0.0000
                                                    Density    =         0.0000
 DV/DL  =      -148.2871
 ------------------------------------------------------------------------------

      A V E R A G E S   O V E R    1000 S T E P S

 NSTEP =     5000   TIME(PS) =     130.000  TEMP(K) =   302.62  PRESS =     0.0
 Etot   =    -11452.5318  EKtot   =      2713.9958  EPtot      =    -14166.5275
 BOND   =        11.3555  ANGLE   =        28.7401  DIHED      =        39.5968
 1-4 NB =        16.1290  1-4 EEL =      -384.4359  VDWAALS    =      2051.0014
 EELEC  =    -15937.8206  EHBOND  =         0.0000  RESTRAINT  =         8.9061
 EAMBER (non-restraint)  =    -14175.4337
 EKCMT  =         0.0000  VIRIAL  =         0.0000  VOLUME     =     47894.0184
                                                    Density    =         0.9398
 DV/DL  =      -147.0511
 ------------------------------------------------------------------------------

      R M S  F L U C T U A T I O N S

 NSTEP =     5000   TIME(PS) =     130.000  TEMP(K) =     3.97  PRESS =     0.0
 Etot   =        23.1833  EKtot   =        35.5794  EPtot      =        30.8714
 BOND   =         2.8331  ANGLE   =         3.6035  DIHED      =         2.0996
 1-4 NB =         1.1020  1-4 EEL =         3.3540  VDWAALS    =        54.6111
 EELEC  =        66.2586  EHBOND  =         0.0000  RESTRAINT  =         1.7653
 EAMBER (non-restraint)  =        29.1061
 EKCMT  =         0.0000  VIRIAL  =         0.0000  VOLUME     =       230.8691
                                                    Density    =         0.0045
 DV/DL  =         6.1903
 ------------------------------------------------------------------------------

      A V E R A G E S   O V E R    1000 S T E P S

 NSTEP =     5000   TIME(PS) =     130.000  TEMP(K) =   302.61  PRESS =     0.0
 Etot   =    -11454.4551  EKtot   =      2712.0725  EPtot      =    -14166.5275
 BOND   =        11.3555  ANGLE   =        28.7401  DIHED      =        39.5968
 1-4 NB =        16.1290  1-4 EEL =      -384.4359  VDWAALS    =      2051.0014
 EELEC  =    -15937.8206  EHBOND  =         0.0000  RESTRAINT  =         8.9061
 EAMBER (non-restraint)  =    -14175.4337
 EKCMT  =         0.0000  VIRIAL  =         0.0000  VOLUME     =     47894.0184
                                                    Density    =         0.9397
 DV/DL  =      -147.0511
 ------------------------------------------------------------------------------

      R M S  F L U C T U A T I O N S

 NSTEP =     5000   TIME(PS) =     130.000  TEMP(K) =     3.97  PRESS =     0.0
 Etot   =        23.2766  EKtot   =        35.6142  EPtot      =        30.8714
 BOND   =         2.8331  ANGLE   =         3.6035  DIHED      =         2.0996
 1-4 NB =         1.1020  1-4 EEL =         3.3540  VDWAALS    =        54.6111
 EELEC  =        66.2586  EHBOND  =         0.0000  RESTRAINT  =         1.7653
 EAMBER (non-restraint)  =        29.1061
 EKCMT  =         0.0000  VIRIAL  =         0.0000  VOLUME     =       230.8691
                                                    Density    =         0.0045
 DV/DL  =         6.1903
 ------------------------------------------------------------------------------

      DV/DL, AVERAGES OVER    1000 STEPS

 NSTEP =     5000   TIME(PS) =     130.000  TEMP(K) =     3.97  PRESS =     0.0
 Etot   =         0.0000  EKtot   =         0.0000  EPtot      =      -145.5538
 BOND   =         0.0000  ANGLE   =         0.0000  DIHED      =         0.0000
 1-4 NB =        -0.0622  1-4 EEL =      -194.7590  VDWAALS    =        -0.3706
 EELEC  =        49.3181  EHBOND  =         0.0000  RESTRAINT  =         0.0000
 EKCMT  =         0.0000  VIRIAL  =         0.0000  VOLUME     =         0.0000
                                                    Density    =         0.0000
 DV/DL  =      -145.5538
 ------------------------------------------------------------------------------

      A V E R A G E S   O V E R    5000 S T E P S

 NSTEP =     5000   TIME(PS) =     130.000  TEMP(K) =   300.81  PRESS =     0.0
 Etot   =    -11401.5202  EKtot   =      2697.7330  EPtot      =    -14099.2532
 BOND   =        10.8181  ANGLE   =        27.4627  DIHED      =        40.0652
 1-4 NB =        16.0114  1-4 EEL =      -384.3838  VDWAALS    =      2040.0446
 EELEC  =    -15857.9229  EHBOND  =         0.0000  RESTRAINT  =         8.6515
 EAMBER (non-restraint)  =    -14107.9046
 EKCMT  =         0.0000  VIRIAL  =         0.0000  VOLUME     =     49983.2342
                                                    Density    =         0.9013
 DV/DL  =      -148.5218
 ------------------------------------------------------------------------------

      R M S  F L U C T U A T I O N S

 NSTEP =     5000   TIME(PS) =     130.000  TEMP(K) =     4.33  PRESS =     0.0
 Etot   =        55.4188  EKtot   =        38.8441  EPtot      =        56.3154
 BOND   =         2.6814  ANGLE   =         3.4230  DIHED      =         2.0853
 1-4 NB =         1.1210  1-4 EEL =         3.1617  VDWAALS    =        60.1607
 EELEC  =        89.0547  EHBOND  =         0.0000  RESTRAINT  =         1.9174
 EAMBER (non-restraint)  =        54.3981
 EKCMT  =         0.0000  VIRIAL  =         0.0000  VOLUME     =      1557.9362
                                                    Density    =         0.0281
 DV/DL  =         5.9300
 ------------------------------------------------------------------------------

      A V E R A G E S   O V E R    5000 S T E P S

 NSTEP =     5000   TIME(PS) =     130.000  TEMP(K) =   300.82  PRESS =     0.0
 Etot   =    -11403.2592  EKtot   =      2695.9940  EPtot      =    -14099.2532
 BOND   =        10.8181  ANGLE   =        27.4627  DIHED      =        40.0652
 1-4 NB =        16.0114  1-4 EEL =      -384.3838  VDWAALS    =      2040.0446
 EELEC  =    -15857.9229  EHBOND  =         0.0000  RESTRAINT  =         8.6515
 EAMBER (non-restraint)  =    -14107.9046
 EKCMT  =         0.0000  VIRIAL  =         0.0000  VOLUME     =     49983.2342
                                                    Density    =         0.9013
 DV/DL  =      -148.5218
 ------------------------------------------------------------------------------

      R M S  F L U C T U A T I O N S

 NSTEP =     5000   TIME(PS) =     130.000  TEMP(K) =     4.34  PRESS =     0.0
 Etot   =        55.6675  EKtot   =        38.8570  EPtot      =        56.3154
 BOND   =         2.6814  ANGLE   =         3.4230  DIHED      =         2.0853
 1-4 NB =         1.1210  1-4 EEL =         3.1617  VDWAALS    =        60.1607
 EELEC  =        89.0547  EHBOND  =         0.0000  RESTRAINT  =         1.9174
 EAMBER (non-restraint)  =        54.3981
 EKCMT  =         0.0000  VIRIAL  =         0.0000  VOLUME     =      1557.9362
                                                    Density    =         0.0281
 DV/DL  =         5.9300
 ------------------------------------------------------------------------------

      DV/DL, AVERAGES OVER    5000 STEPS

 NSTEP =     5000   TIME(PS) =     130.000  TEMP(K) =     4.34  PRESS =     0.0
 Etot   =         0.0000  EKtot   =         0.0000  EPtot      =      -147.0336
 BOND   =         0.0000  ANGLE   =         0.0000  DIHED      =         0.0000
 1-4 NB =        -0.0032  1-4 EEL =      -194.8783  VDWAALS    =        -0.1131
 EELEC  =        47.3082  EHBOND  =         0.0000  RESTRAINT  =         0.0000
 EKCMT  =         0.0000  VIRIAL  =         0.0000  VOLUME     =         0.0000
                                                    Density    =         0.0000
 DV/DL  =      -147.0336
 ------------------------------------------------------------------------------
