-------------------------------------------------------
          Amber 20 PMEMD                              2020
          -------------------------------------------------------

  [-O]verwriting output

File Assignments:

 Here is the input file:

NPT MD w/No position restraints and PME (sander)
 &cntrl
  ntx    = 5,
  irest  = 1,
  ntpr   = 100,
  ntwx   = 10000,
  ntwe   = 10000,
  ntwr   = 10000,
  ig     = -1,

  ntb    = 2,
  ntp = 1, pres0 = 1.0, taup = 2.0,gamma_ln = 2.0,
  cut    = 10.0,
  iwrap  = 1,
  barostat = 2,
  ntr = 1, restraint_wt = 10.00,
  restraintmask='!:WAT & !@H=',

  nstlim = 5000,
  t      = 0.0,
  dt     = 0.002,

  temp0  = 300.0,
  tempi  = 300.0,
  ntt    = 3,
  tautp  = 2.0,

  ntf    = 1,
  ntc    = 2,
  iwrap=1, ioutfm=1, ntwv=-1,ntave=1000,
  icfe = 1, ifsc = 1,
  timask1=':1,2',
  timask2=':3',
  scmask1=':2',
  scmask2='',
  ifmbar = 1,
  clambda = 0.0,
  mbar_states = 10,
  mbar_lambda = 0.0, 0.0, 0.2, 0.2, 0.5, 0.5, 0.6, 0.6, 1.0, 1.0,
&end
 /

Note: ig = -1. Setting random seed to   312730 based on wallclock time in
      microseconds.

--------------------------------------------------------------------------------
   1.  RESOURCE   USE:
--------------------------------------------------------------------------------

 getting box info from netcdf restart file
 NATOM  =    4548 NTYPES =      17 NBONH =    4492 MBONA  =      62
 NTHETH =     105 MTHETA =      88 NPHIH =     188 MPHIA  =     154
 NHPARM =       0 NPARM  =       0 NNB   =    6494 NRES   =    1485
 NBONA  =      62 NTHETA =      88 NPHIA =     154 NUMBND =      22
 NUMANG =      36 NPTRA  =      19 NATYP =      18 NPHB   =       1
 IFBOX  =       1 NMXRS  =      50 IFCAP =       0 NEXTRA =       0
 NCOPY  =       0

     BOX TYPE: RECTILINEAR

--------------------------------------------------------------------------------
   2.  CONTROL  DATA  FOR  THE  RUN
--------------------------------------------------------------------------------

default_name

General flags:
     imin    =       0, nmropt  =       0

Nature and format of input:
     ntx     =       5, irest   =       1, ntrx    =       1

Nature and format of output:
     ntxo    =       2, ntpr    =     100, ntrx    =       1, ntwr    =   10000
     iwrap   =       1, ntwx    =   10000, ntwv    =      -1, ntwe    =   10000
     ioutfm  =       1, ntwprt  =       0, idecomp =       0, rbornstat=      0

Potential function:
     ntf     =       1, ntb     =       2, igb     =       0, nsnb    =      25
     ipol    =       0, gbsa    =       0, iesp    =       0
     dielc   =   1.00000, cut     =  10.00000, intdiel =   1.00000

Frozen or restrained atoms:
     ibelly  =       0, ntr     =       1
     restraint_wt =  10.00000

Molecular dynamics:
     nstlim  =      5000, nscm    =         0, nrespa  =         1
     t       =   0.00000, dt      =   0.00200, vlimit  =  -1.00000

Langevin dynamics temperature regulation:
     ig      =  312730
     temp0   = 300.00000, tempi   = 300.00000, gamma_ln=   2.00000

Pressure regulation:
     ntp     =       1
     pres0   =   1.00000, comp    =  44.60000, taup    =   2.00000
     Monte-Carlo Barostat:
     mcbarint  =     100

SHAKE:
     ntc     =       2, jfastw  =       0
     tol     =   0.00001

Free energy options:
     icfe    =       1, ifsc    =       1, klambda =       1
     clambda =  0.0000, scalpha =  0.5000, scbeta  = 12.0000
     sceeorder =       2
     dynlmb =  0.0000 logdvdl =       0

FEP MBAR options:
     ifmbar  =       1,  bar_intervall =      100
     mbar_states =      10

Ewald parameters:
     verbose =       0, ew_type =       0, nbflag  =       1, use_pme =       1
     vdwmeth =       1, eedmeth =       1, netfrc  =       1
     Box X =   38.586   Box Y =   40.088   Box Z =   38.008
     Alpha =   90.000   Beta  =   90.000   Gamma =   90.000
     NFFT1 =   40       NFFT2 =   48       NFFT3 =   40
     Cutoff=   10.000   Tol   =0.100E-04
     Ewald Coefficient =  0.27511
     Interpolation order =    4

    LOADING THE CONSTRAINED ATOMS AS GROUPS

   5.  REFERENCE ATOM COORDINATES

  default_name
     Mask !:WAT & !@H=; matches    56 atoms
     TI Mask 1 :1,2; matches     52 atoms
     TI Mask 2 :3; matches     50 atoms
     TI region 1:    4498 atoms
     TI region 2:    4496 atoms
     SC Mask 1 :2; matches      2 atoms

    MBAR - lambda values considered:
      10 total:  0.0000 0.0000 0.2000 0.2000 0.5000 0.5000 0.6000 0.6000 1.0000 1.0000
    Extra energies will be computed     50 times.

--------------------------------------------------------------------------------
   3.  ATOMIC COORDINATES AND VELOCITIES
--------------------------------------------------------------------------------

default_name
 begin time read from input coords =   110.000 ps

     Molecule     1 is partially softcore
     Molecule     2 is partially softcore
 Number of triangulated 3-point waters found:     1482
   Removing shake constraints from HX1   LBM   2 -- N26   LAM   1
   Removing shake constraints from H23   LBM   2 -- N26   LAM   1
 Number of shake restraints removed in TI region  1 :        2
 Number of shake restraints removed in TI region  2 :        0

     Sum of charges for TI region  1 =  -0.00249680
     Skip neutralizing charges...

     Sum of charges for TI region  2 =  -0.00299999
     Skip neutralizing charges...

--------------------------------------------------------------------------------
   4.  RESULTS
 NSTEP =      100   TIME(PS) =     110.200  TEMP(K) =   302.95  PRESS =     0.0
 Etot   =    -11281.0980  EKtot   =      2716.9301  EPtot      =    -13998.0282
 BOND   =         6.1857  ANGLE   =        30.1514  DIHED      =        37.0335
 1-4 NB =        15.7844  1-4 EEL =      -386.5605  VDWAALS    =      2005.0821
 EELEC  =    -15711.4513  EHBOND  =         0.0000  RESTRAINT  =         5.7466
 EAMBER (non-restraint)  =    -14003.7748
 EKCMT  =         0.0000  VIRIAL  =         0.0000  VOLUME     =     58791.1983
                                                    Density    =         0.7656
 DV/DL  =      -145.5471
 ------------------------------------------------------------------------------

      A V E R A G E S   O V E R    1000 S T E P S

 NSTEP =     1000   TIME(PS) =     112.000  TEMP(K) =   296.51  PRESS =     0.0
 Etot   =    -11336.2877  EKtot   =      2659.1823  EPtot      =    -13995.4701
 BOND   =        10.4186  ANGLE   =        26.9624  DIHED      =        39.6877
 1-4 NB =        16.8426  1-4 EEL =      -385.2766  VDWAALS    =      2062.6690
 EELEC  =    -15774.2129  EHBOND  =         0.0000  RESTRAINT  =         7.4391
 EAMBER (non-restraint)  =    -14002.9092
 EKCMT  =         0.0000  VIRIAL  =         0.0000  VOLUME     =     58311.7603
                                                    Density    =         0.7719
 DV/DL  =      -150.7572
 ------------------------------------------------------------------------------

      R M S  F L U C T U A T I O N S

 NSTEP =     1000   TIME(PS) =     112.000  TEMP(K) =     3.53  PRESS =     0.0
 Etot   =        33.5238  EKtot   =        31.6942  EPtot      =        37.0730
 BOND   =         2.4802  ANGLE   =         2.8565  DIHED      =         2.4007
 1-4 NB =         1.2274  1-4 EEL =         2.9154  VDWAALS    =        61.1187
 EELEC  =        73.4956  EHBOND  =         0.0000  RESTRAINT  =         1.6530
 EAMBER (non-restraint)  =        35.4200
 EKCMT  =         0.0000  VIRIAL  =         0.0000  VOLUME     =       451.5136
                                                    Density    =         0.0060
 DV/DL  =         5.5987
 ------------------------------------------------------------------------------

      A V E R A G E S   O V E R    1000 S T E P S

 NSTEP =     1000   TIME(PS) =     112.000  TEMP(K) =   296.46  PRESS =     0.0
 Etot   =    -11338.5683  EKtot   =      2656.9018  EPtot      =    -13995.4701
 BOND   =        10.4186  ANGLE   =        26.9624  DIHED      =        39.6877
 1-4 NB =        16.8426  1-4 EEL =      -385.2766  VDWAALS    =      2062.6690
 EELEC  =    -15774.2129  EHBOND  =         0.0000  RESTRAINT  =         7.4391
 EAMBER (non-restraint)  =    -14002.9092
 EKCMT  =         0.0000  VIRIAL  =         0.0000  VOLUME     =     58311.7603
                                                    Density    =         0.7718
 DV/DL  =      -150.7572
 ------------------------------------------------------------------------------

      R M S  F L U C T U A T I O N S

 NSTEP =     1000   TIME(PS) =     112.000  TEMP(K) =     3.53  PRESS =     0.0
 Etot   =        33.6746  EKtot   =        31.6666  EPtot      =        37.0730
 BOND   =         2.4802  ANGLE   =         2.8565  DIHED      =         2.4007
 1-4 NB =         1.2274  1-4 EEL =         2.9154  VDWAALS    =        61.1187
 EELEC  =        73.4956  EHBOND  =         0.0000  RESTRAINT  =         1.6530
 EAMBER (non-restraint)  =        35.4200
 EKCMT  =         0.0000  VIRIAL  =         0.0000  VOLUME     =       451.5136
                                                    Density    =         0.0060
 DV/DL  =         5.5987
 ------------------------------------------------------------------------------

      DV/DL, AVERAGES OVER    1000 STEPS

 NSTEP =     1000   TIME(PS) =     112.000  TEMP(K) =     3.53  PRESS =     0.0
 Etot   =         0.0000  EKtot   =         0.0000  EPtot      =      -149.2338
 BOND   =         0.0000  ANGLE   =         0.0000  DIHED      =         0.0000
 1-4 NB =         0.0435  1-4 EEL =      -193.8215  VDWAALS    =        -0.4892
 EELEC  =        45.4152  EHBOND  =         0.0000  RESTRAINT  =         0.0000
 EKCMT  =         0.0000  VIRIAL  =         0.0000  VOLUME     =         0.0000
                                                    Density    =         0.0000
 DV/DL  =      -149.2338
 ------------------------------------------------------------------------------

      A V E R A G E S   O V E R    1000 S T E P S

 NSTEP =     2000   TIME(PS) =     114.000  TEMP(K) =   296.96  PRESS =     0.0
 Etot   =    -11346.6029  EKtot   =      2663.1512  EPtot      =    -14009.7541
 BOND   =        10.3085  ANGLE   =        28.8261  DIHED      =        39.4449
 1-4 NB =        16.8735  1-4 EEL =      -385.4325  VDWAALS    =      2055.7064
 EELEC  =    -15784.0058  EHBOND  =         0.0000  RESTRAINT  =         8.5249
 EAMBER (non-restraint)  =    -14018.2790
 EKCMT  =         0.0000  VIRIAL  =         0.0000  VOLUME     =     56334.2947
                                                    Density    =         0.7990
 DV/DL  =      -147.7322
 ------------------------------------------------------------------------------

      R M S  F L U C T U A T I O N S

 NSTEP =     2000   TIME(PS) =     114.000  TEMP(K) =     3.89  PRESS =     0.0
 Etot   =        28.4485  EKtot   =        34.8730  EPtot      =        40.4847
 BOND   =         2.4832  ANGLE   =         3.3668  DIHED      =         2.0926
 1-4 NB =         1.0431  1-4 EEL =         3.2648  VDWAALS    =        54.4686
 EELEC  =        76.7415  EHBOND  =         0.0000  RESTRAINT  =         1.7680
 EAMBER (non-restraint)  =        38.7167
 EKCMT  =         0.0000  VIRIAL  =         0.0000  VOLUME     =       390.0034
                                                    Density    =         0.0055
 DV/DL  =         6.4247
 ------------------------------------------------------------------------------

      A V E R A G E S   O V E R    1000 S T E P S

 NSTEP =     2000   TIME(PS) =     114.000  TEMP(K) =   296.95  PRESS =     0.0
 Etot   =    -11348.4060  EKtot   =      2661.3481  EPtot      =    -14009.7541
 BOND   =        10.3085  ANGLE   =        28.8261  DIHED      =        39.4449
 1-4 NB =        16.8735  1-4 EEL =      -385.4325  VDWAALS    =      2055.7064
 EELEC  =    -15784.0058  EHBOND  =         0.0000  RESTRAINT  =         8.5249
 EAMBER (non-restraint)  =    -14018.2790
 EKCMT  =         0.0000  VIRIAL  =         0.0000  VOLUME     =     56334.2947
                                                    Density    =         0.7989
 DV/DL  =      -147.7322
 ------------------------------------------------------------------------------

      R M S  F L U C T U A T I O N S

 NSTEP =     2000   TIME(PS) =     114.000  TEMP(K) =     3.88  PRESS =     0.0
 Etot   =        28.2975  EKtot   =        34.8124  EPtot      =        40.4847
 BOND   =         2.4832  ANGLE   =         3.3668  DIHED      =         2.0926
 1-4 NB =         1.0431  1-4 EEL =         3.2648  VDWAALS    =        54.4686
 EELEC  =        76.7415  EHBOND  =         0.0000  RESTRAINT  =         1.7680
 EAMBER (non-restraint)  =        38.7167
 EKCMT  =         0.0000  VIRIAL  =         0.0000  VOLUME     =       390.0034
                                                    Density    =         0.0055
 DV/DL  =         6.4247
 ------------------------------------------------------------------------------

      DV/DL, AVERAGES OVER    1000 STEPS

 NSTEP =     2000   TIME(PS) =     114.000  TEMP(K) =     3.88  PRESS =     0.0
 Etot   =         0.0000  EKtot   =         0.0000  EPtot      =      -146.2424
 BOND   =         0.0000  ANGLE   =         0.0000  DIHED      =         0.0000
 1-4 NB =         0.0926  1-4 EEL =      -193.6536  VDWAALS    =        -0.3040
 EELEC  =        47.4796  EHBOND  =         0.0000  RESTRAINT  =         0.0000
 EKCMT  =         0.0000  VIRIAL  =         0.0000  VOLUME     =         0.0000
                                                    Density    =         0.0000
 DV/DL  =      -146.2424
 ------------------------------------------------------------------------------

      A V E R A G E S   O V E R    1000 S T E P S

 NSTEP =     5000   TIME(PS) =     120.000  TEMP(K) =   298.78  PRESS =     0.0
 Etot   =    -11421.8355  EKtot   =      2679.5507  EPtot      =    -14101.3862
 BOND   =        12.0722  ANGLE   =        28.7158  DIHED      =        39.5935
 1-4 NB =        16.7992  1-4 EEL =      -385.8798  VDWAALS    =      2092.7725
 EELEC  =    -15913.8951  EHBOND  =         0.0000  RESTRAINT  =         8.4355
 EAMBER (non-restraint)  =    -14109.8217
 EKCMT  =         0.0000  VIRIAL  =         0.0000  VOLUME     =     52863.4979
                                                    Density    =         0.8514
 DV/DL  =      -148.4344
 ------------------------------------------------------------------------------

      R M S  F L U C T U A T I O N S

 NSTEP =     5000   TIME(PS) =     120.000  TEMP(K) =     3.45  PRESS =     0.0
 Etot   =        39.7367  EKtot   =        30.9822  EPtot      =        44.1904
 BOND   =         2.7364  ANGLE   =         3.1450  DIHED      =         1.8663
 1-4 NB =         1.1387  1-4 EEL =         3.3689  VDWAALS    =        64.1986
 EELEC  =        88.0531  EHBOND  =         0.0000  RESTRAINT  =         1.4958
 EAMBER (non-restraint)  =        42.6945
 EKCMT  =         0.0000  VIRIAL  =         0.0000  VOLUME     =       105.1372
                                                    Density    =         0.0017
 DV/DL  =         5.6293
 ------------------------------------------------------------------------------

      A V E R A G E S   O V E R    1000 S T E P S

 NSTEP =     5000   TIME(PS) =     120.000  TEMP(K) =   298.78  PRESS =     0.0
 Etot   =    -11423.6463  EKtot   =      2677.7399  EPtot      =    -14101.3862
 BOND   =        12.0722  ANGLE   =        28.7158  DIHED      =        39.5935
 1-4 NB =        16.7992  1-4 EEL =      -385.8798  VDWAALS    =      2092.7725
 EELEC  =    -15913.8951  EHBOND  =         0.0000  RESTRAINT  =         8.4355
 EAMBER (non-restraint)  =    -14109.8217
 EKCMT  =         0.0000  VIRIAL  =         0.0000  VOLUME     =     52863.4979
                                                    Density    =         0.8513
 DV/DL  =      -148.4344
 ------------------------------------------------------------------------------

      R M S  F L U C T U A T I O N S

 NSTEP =     5000   TIME(PS) =     120.000  TEMP(K) =     3.46  PRESS =     0.0
 Etot   =        39.6699  EKtot   =        30.9743  EPtot      =        44.1904
 BOND   =         2.7364  ANGLE   =         3.1450  DIHED      =         1.8663
 1-4 NB =         1.1387  1-4 EEL =         3.3689  VDWAALS    =        64.1986
 EELEC  =        88.0531  EHBOND  =         0.0000  RESTRAINT  =         1.4958
 EAMBER (non-restraint)  =        42.6945
 EKCMT  =         0.0000  VIRIAL  =         0.0000  VOLUME     =       105.1372
                                                    Density    =         0.0017
 DV/DL  =         5.6293
 ------------------------------------------------------------------------------

      DV/DL, AVERAGES OVER    1000 STEPS

 NSTEP =     5000   TIME(PS) =     120.000  TEMP(K) =     3.46  PRESS =     0.0
 Etot   =         0.0000  EKtot   =         0.0000  EPtot      =      -146.9731
 BOND   =         0.0000  ANGLE   =         0.0000  DIHED      =         0.0000
 1-4 NB =         0.0791  1-4 EEL =      -193.8481  VDWAALS    =        -0.1095
 EELEC  =        46.0937  EHBOND  =         0.0000  RESTRAINT  =         0.0000
 EKCMT  =         0.0000  VIRIAL  =         0.0000  VOLUME     =         0.0000
                                                    Density    =         0.0000
 DV/DL  =      -146.9731
 ------------------------------------------------------------------------------

      A V E R A G E S   O V E R    5000 S T E P S

 NSTEP =     5000   TIME(PS) =     120.000  TEMP(K) =   299.05  PRESS =     0.0
 Etot   =    -11344.2798  EKtot   =      2681.9237  EPtot      =    -14026.2035
 BOND   =        11.1639  ANGLE   =        27.8603  DIHED      =        39.4492
 1-4 NB =        16.8094  1-4 EEL =      -385.6267  VDWAALS    =      2062.5771
 EELEC  =    -15806.2581  EHBOND  =         0.0000  RESTRAINT  =         7.8214
 EAMBER (non-restraint)  =    -14034.0250
 EKCMT  =         0.0000  VIRIAL  =         0.0000  VOLUME     =     55081.6668
                                                    Density    =         0.8182
 DV/DL  =      -148.8198
 ------------------------------------------------------------------------------

      R M S  F L U C T U A T I O N S

 NSTEP =     5000   TIME(PS) =     120.000  TEMP(K) =     4.64  PRESS =     0.0
 Etot   =        61.5029  EKtot   =        41.6252  EPtot      =        57.4503
 BOND   =         2.6810  ANGLE   =         3.1945  DIHED      =         2.0787
 1-4 NB =         1.1524  1-4 EEL =         3.0980  VDWAALS    =        63.1784
 EELEC  =        98.3874  EHBOND  =         0.0000  RESTRAINT  =         1.7330
 EAMBER (non-restraint)  =        55.7172
 EKCMT  =         0.0000  VIRIAL  =         0.0000  VOLUME     =      2039.7028
                                                    Density    =         0.0298
 DV/DL  =         5.6457
 ------------------------------------------------------------------------------

      A V E R A G E S   O V E R    5000 S T E P S

 NSTEP =     5000   TIME(PS) =     120.000  TEMP(K) =   299.03  PRESS =     0.0
 Etot   =    -11346.1850  EKtot   =      2680.0185  EPtot      =    -14026.2035
 BOND   =        11.1639  ANGLE   =        27.8603  DIHED      =        39.4492
 1-4 NB =        16.8094  1-4 EEL =      -385.6267  VDWAALS    =      2062.5771
 EELEC  =    -15806.2581  EHBOND  =         0.0000  RESTRAINT  =         7.8214
 EAMBER (non-restraint)  =    -14034.0250
 EKCMT  =         0.0000  VIRIAL  =         0.0000  VOLUME     =     55081.6668
                                                    Density    =         0.8182
 DV/DL  =      -148.8198
 ------------------------------------------------------------------------------

      R M S  F L U C T U A T I O N S

 NSTEP =     5000   TIME(PS) =     120.000  TEMP(K) =     4.64  PRESS =     0.0
 Etot   =        61.3883  EKtot   =        41.6072  EPtot      =        57.4503
 BOND   =         2.6810  ANGLE   =         3.1945  DIHED      =         2.0787
 1-4 NB =         1.1524  1-4 EEL =         3.0980  VDWAALS    =        63.1784
 EELEC  =        98.3874  EHBOND  =         0.0000  RESTRAINT  =         1.7330
 EAMBER (non-restraint)  =        55.7172
 EKCMT  =         0.0000  VIRIAL  =         0.0000  VOLUME     =      2039.7028
                                                    Density    =         0.0298
 DV/DL  =         5.6457
 ------------------------------------------------------------------------------

      DV/DL, AVERAGES OVER    5000 STEPS

 NSTEP =     5000   TIME(PS) =     120.000  TEMP(K) =     4.64  PRESS =     0.0
 Etot   =         0.0000  EKtot   =         0.0000  EPtot      =      -147.3256
 BOND   =         0.0000  ANGLE   =         0.0000  DIHED      =         0.0000
 1-4 NB =         0.0721  1-4 EEL =      -193.8456  VDWAALS    =        -0.1878
 EELEC  =        46.1361  EHBOND  =         0.0000  RESTRAINT  =         0.0000
 EKCMT  =         0.0000  VIRIAL  =         0.0000  VOLUME     =         0.0000
                                                    Density    =         0.0000
 DV/DL  =      -147.3256
 ------------------------------------------------------------------------------
