-------------------------------------------------------
          Amber 20 PMEMD                              2020
          -------------------------------------------------------

  [-O]verwriting output

File Assignments:

 Here is the input file:

NVT MD w/No position restraints and PME (sander)
 &cntrl
  ntx    = 5,
  irest  = 1,
  ntpr   = 50,
  ntwx   = 10000,
  ntwe   = 10000,
  ntwr   = 10000,
  ig     = -1,

  ntb    = 2,
  ntp = 1, pres0 = 1.0, taup = 2.0,gamma_ln = 2.0,
  cut    = 10.0,
  iwrap  = 1,
  barostat = 2,

  t      = 0.0,
  dt     = 0.002,

  temp0  = 300.0,
  tempi  = 300.0,
  ntt    = 3,
  tautp  = 2.0,

  ntf    = 1,
  ntc    = 2,
  iwrap=1, ioutfm=1, ntwv=-1,ntave=1000,
  bar_intervall = 50,
  icfe = 1, ifsc = 1,
  timask1=':1,2',
  timask2=':3',
  scmask1=':2',
  scmask2='',
  ifmbar = 1,
  nstlim = 1000,
  clambda = 0.0,
  mbar_states = 10,
  mbar_lambda = 0.0, 0.0, 0.2, 0.2, 0.5, 0.5, 0.6, 0.6, 1.0, 1.0,
&end
 /

Note: ig = -1. Setting random seed to   228755 based on wallclock time in
      microseconds.

--------------------------------------------------------------------------------
   1.  RESOURCE   USE:
--------------------------------------------------------------------------------

 getting new box info from bottom of inpcrd
 NATOM  =    4548 NTYPES =      17 NBONH =    4492 MBONA  =      62
 NTHETH =     105 MTHETA =      88 NPHIH =     188 MPHIA  =     154
 NHPARM =       0 NPARM  =       0 NNB   =    6494 NRES   =    1485
 NBONA  =      62 NTHETA =      88 NPHIA =     154 NUMBND =      22
 NUMANG =      36 NPTRA  =      19 NATYP =      18 NPHB   =       1
 IFBOX  =       1 NMXRS  =      50 IFCAP =       0 NEXTRA =       0
 NCOPY  =       0

     BOX TYPE: RECTILINEAR

--------------------------------------------------------------------------------
   2.  CONTROL  DATA  FOR  THE  RUN
--------------------------------------------------------------------------------

default_name

General flags:
     imin    =       0, nmropt  =       0

Nature and format of input:
     ntx     =       5, irest   =       1, ntrx    =       1

Nature and format of output:
     ntxo    =       2, ntpr    =      50, ntrx    =       1, ntwr    =   10000
     iwrap   =       1, ntwx    =   10000, ntwv    =      -1, ntwe    =   10000
     ioutfm  =       1, ntwprt  =       0, idecomp =       0, rbornstat=      0

Potential function:
     ntf     =       1, ntb     =       2, igb     =       0, nsnb    =      25
     ipol    =       0, gbsa    =       0, iesp    =       0
     dielc   =   1.00000, cut     =  10.00000, intdiel =   1.00000

Frozen or restrained atoms:
     ibelly  =       0, ntr     =       0

Molecular dynamics:
     nstlim  =      1000, nscm    =      1000, nrespa  =         1
     t       =   0.00000, dt      =   0.00200, vlimit  =  -1.00000

Langevin dynamics temperature regulation:
     ig      =  228755
     temp0   = 300.00000, tempi   = 300.00000, gamma_ln=   2.00000

Pressure regulation:
     ntp     =       1
     pres0   =   1.00000, comp    =  44.60000, taup    =   2.00000
     Monte-Carlo Barostat:
     mcbarint  =     100

SHAKE:
     ntc     =       2, jfastw  =       0
     tol     =   0.00001

Free energy options:
     icfe    =       1, ifsc    =       1, klambda =       1
     clambda =  0.0000, scalpha =  0.5000, scbeta  = 12.0000
     sceeorder =       2
     dynlmb =  0.0000 logdvdl =       0

FEP MBAR options:
     ifmbar  =       1,  bar_intervall =       50
     mbar_states =      10

Ewald parameters:
     verbose =       0, ew_type =       0, nbflag  =       1, use_pme =       1
     vdwmeth =       1, eedmeth =       1, netfrc  =       1
     Box X =   35.362   Box Y =   36.738   Box Z =   34.831
     Alpha =   90.000   Beta  =   90.000   Gamma =   90.000
     NFFT1 =   36       NFFT2 =   40       NFFT3 =   36
     Cutoff=   10.000   Tol   =0.100E-04
     Ewald Coefficient =  0.27511
     Interpolation order =    4
     TI Mask 1 :1,2; matches     52 atoms
     TI Mask 2 :3; matches     50 atoms
     TI region 1:    4498 atoms
     TI region 2:    4496 atoms
     SC Mask 1 :2; matches      2 atoms

    MBAR - lambda values considered:
      10 total:  0.0000 0.0000 0.2000 0.2000 0.5000 0.5000 0.6000 0.6000 1.0000 1.0000
    Extra energies will be computed     20 times.

--------------------------------------------------------------------------------
   3.  ATOMIC COORDINATES AND VELOCITIES
--------------------------------------------------------------------------------

Cpptraj Generated Restart
 begin time read from input coords =   314.000 ps

     Molecule     1 is partially softcore
     Molecule     2 is partially softcore
 Number of triangulated 3-point waters found:     1482
   Removing shake constraints from HX1   LBM   2 -- N26   LAM   1
   Removing shake constraints from H23   LBM   2 -- N26   LAM   1
 Number of shake restraints removed in TI region  1 :        2
 Number of shake restraints removed in TI region  2 :        0

     Sum of charges for TI region  1 =  -0.00249680
     Skip neutralizing charges...

     Sum of charges for TI region  2 =  -0.00299999
     Skip neutralizing charges...

--------------------------------------------------------------------------------
   4.  RESULTS
 NSTEP =       50   TIME(PS) =     314.100  TEMP(K) =   299.82  PRESS =     0.0
 Etot   =    -11695.4678  EKtot   =      2688.8215  EPtot      =    -14384.2893
 BOND   =         7.6302  ANGLE   =        32.2297  DIHED      =        36.4434
 1-4 NB =        15.7450  1-4 EEL =      -378.0522  VDWAALS    =      2191.2898
 EELEC  =    -16289.5750  EHBOND  =         0.0000  RESTRAINT  =         0.0000
 EKCMT  =         0.0000  VIRIAL  =         0.0000  VOLUME     =     45249.4164
                                                    Density    =         0.9947
 DV/DL  =      -156.3828
 ------------------------------------------------------------------------------

      A V E R A G E S   O V E R    1000 S T E P S

 NSTEP =     1000   TIME(PS) =     316.000  TEMP(K) =   301.81  PRESS =     0.0
 Etot   =    -11645.1057  EKtot   =      2706.7099  EPtot      =    -14351.8156
 BOND   =        11.0663  ANGLE   =        31.4976  DIHED      =        39.0696
 1-4 NB =        15.4483  1-4 EEL =      -386.0340  VDWAALS    =      2110.0614
 EELEC  =    -16172.9248  EHBOND  =         0.0000  RESTRAINT  =         0.0000
 EKCMT  =         0.0000  VIRIAL  =         0.0000  VOLUME     =     45520.1576
                                                    Density    =         0.9888
 DV/DL  =      -148.9366
 ------------------------------------------------------------------------------

      R M S  F L U C T U A T I O N S

 NSTEP =     1000   TIME(PS) =     316.000  TEMP(K) =     3.93  PRESS =     0.0
 Etot   =        55.8110  EKtot   =        35.2249  EPtot      =        50.0382
 BOND   =         2.5705  ANGLE   =         3.7189  DIHED      =         2.7298
 1-4 NB =         1.1558  1-4 EEL =         3.7697  VDWAALS    =        53.5183
 EELEC  =        82.4813  EHBOND  =         0.0000  RESTRAINT  =         0.0000
 EKCMT  =         0.0000  VIRIAL  =         0.0000  VOLUME     =       174.4141
                                                    Density    =         0.0038
 DV/DL  =         6.0016
 ------------------------------------------------------------------------------

      A V E R A G E S   O V E R    1000 S T E P S

 NSTEP =     1000   TIME(PS) =     316.000  TEMP(K) =   301.77  PRESS =     0.0
 Etot   =    -11647.2857  EKtot   =      2704.5300  EPtot      =    -14351.8156
 BOND   =        11.0663  ANGLE   =        31.4976  DIHED      =        39.0696
 1-4 NB =        15.4483  1-4 EEL =      -386.0340  VDWAALS    =      2110.0614
 EELEC  =    -16172.9248  EHBOND  =         0.0000  RESTRAINT  =         0.0000
 EKCMT  =         0.0000  VIRIAL  =         0.0000  VOLUME     =     45520.1576
                                                    Density    =         0.9887
 DV/DL  =      -148.9366
 ------------------------------------------------------------------------------

      R M S  F L U C T U A T I O N S

 NSTEP =     1000   TIME(PS) =     316.000  TEMP(K) =     3.90  PRESS =     0.0
 Etot   =        55.4201  EKtot   =        34.9582  EPtot      =        50.0382
 BOND   =         2.5705  ANGLE   =         3.7189  DIHED      =         2.7298
 1-4 NB =         1.1558  1-4 EEL =         3.7697  VDWAALS    =        53.5183
 EELEC  =        82.4813  EHBOND  =         0.0000  RESTRAINT  =         0.0000
 EKCMT  =         0.0000  VIRIAL  =         0.0000  VOLUME     =       174.4141
                                                    Density    =         0.0038
 DV/DL  =         6.0016
 ------------------------------------------------------------------------------

      DV/DL, AVERAGES OVER    1000 STEPS

 NSTEP =     1000   TIME(PS) =     316.000  TEMP(K) =     3.90  PRESS =     0.0
 Etot   =         0.0000  EKtot   =         0.0000  EPtot      =      -147.4316
 BOND   =         0.0000  ANGLE   =         0.0000  DIHED      =         0.0000
 1-4 NB =         0.0386  1-4 EEL =      -194.2393  VDWAALS    =        -0.5679
 EELEC  =        47.7595  EHBOND  =         0.0000  RESTRAINT  =         0.0000
 EKCMT  =         0.0000  VIRIAL  =         0.0000  VOLUME     =         0.0000
                                                    Density    =         0.0000
 DV/DL  =      -147.4316
 ------------------------------------------------------------------------------

      A V E R A G E S   O V E R    1000 S T E P S

 NSTEP =     1000   TIME(PS) =     316.000  TEMP(K) =   301.81  PRESS =     0.0
 Etot   =    -11645.1057  EKtot   =      2706.7099  EPtot      =    -14351.8156
 BOND   =        11.0663  ANGLE   =        31.4976  DIHED      =        39.0696
 1-4 NB =        15.4483  1-4 EEL =      -386.0340  VDWAALS    =      2110.0614
 EELEC  =    -16172.9248  EHBOND  =         0.0000  RESTRAINT  =         0.0000
 EKCMT  =         0.0000  VIRIAL  =         0.0000  VOLUME     =     45520.1576
                                                    Density    =         0.9888
 DV/DL  =      -148.9366
 ------------------------------------------------------------------------------

      R M S  F L U C T U A T I O N S

 NSTEP =     1000   TIME(PS) =     316.000  TEMP(K) =     3.93  PRESS =     0.0
 Etot   =        55.8110  EKtot   =        35.2249  EPtot      =        50.0382
 BOND   =         2.5705  ANGLE   =         3.7189  DIHED      =         2.7298
 1-4 NB =         1.1558  1-4 EEL =         3.7697  VDWAALS    =        53.5183
 EELEC  =        82.4813  EHBOND  =         0.0000  RESTRAINT  =         0.0000
 EKCMT  =         0.0000  VIRIAL  =         0.0000  VOLUME     =       174.4141
                                                    Density    =         0.0038
 DV/DL  =         6.0016
 ------------------------------------------------------------------------------

      A V E R A G E S   O V E R    1000 S T E P S

 NSTEP =     1000   TIME(PS) =     316.000  TEMP(K) =   301.77  PRESS =     0.0
 Etot   =    -11647.2857  EKtot   =      2704.5300  EPtot      =    -14351.8156
 BOND   =        11.0663  ANGLE   =        31.4976  DIHED      =        39.0696
 1-4 NB =        15.4483  1-4 EEL =      -386.0340  VDWAALS    =      2110.0614
 EELEC  =    -16172.9248  EHBOND  =         0.0000  RESTRAINT  =         0.0000
 EKCMT  =         0.0000  VIRIAL  =         0.0000  VOLUME     =     45520.1576
                                                    Density    =         0.9887
 DV/DL  =      -148.9366
 ------------------------------------------------------------------------------

      R M S  F L U C T U A T I O N S

 NSTEP =     1000   TIME(PS) =     316.000  TEMP(K) =     3.90  PRESS =     0.0
 Etot   =        55.4201  EKtot   =        34.9582  EPtot      =        50.0382
 BOND   =         2.5705  ANGLE   =         3.7189  DIHED      =         2.7298
 1-4 NB =         1.1558  1-4 EEL =         3.7697  VDWAALS    =        53.5183
 EELEC  =        82.4813  EHBOND  =         0.0000  RESTRAINT  =         0.0000
 EKCMT  =         0.0000  VIRIAL  =         0.0000  VOLUME     =       174.4141
                                                    Density    =         0.0038
 DV/DL  =         6.0016
 ------------------------------------------------------------------------------

      DV/DL, AVERAGES OVER    1000 STEPS

 NSTEP =     1000   TIME(PS) =     316.000  TEMP(K) =     3.90  PRESS =     0.0
 Etot   =         0.0000  EKtot   =         0.0000  EPtot      =      -147.4316
 BOND   =         0.0000  ANGLE   =         0.0000  DIHED      =         0.0000
 1-4 NB =         0.0386  1-4 EEL =      -194.2393  VDWAALS    =        -0.5679
 EELEC  =        47.7595  EHBOND  =         0.0000  RESTRAINT  =         0.0000
 EKCMT  =         0.0000  VIRIAL  =         0.0000  VOLUME     =         0.0000
                                                    Density    =         0.0000
 DV/DL  =      -147.4316
 ------------------------------------------------------------------------------
